Version 4.1
SHEET 1 3068 2420
WIRE -320 -528 -448 -528
WIRE -192 -528 -320 -528
WIRE -112 -528 -192 -528
WIRE 272 -528 -32 -528
WIRE 400 -528 272 -528
WIRE 608 -528 496 -528
WIRE 640 -528 608 -528
WIRE 752 -528 720 -528
WIRE 832 -528 752 -528
WIRE 912 -528 832 -528
WIRE 1040 -528 912 -528
WIRE 1184 -528 1040 -528
WIRE 1264 -528 1184 -528
WIRE 272 -496 272 -528
WIRE 1184 -496 1184 -528
WIRE -448 -480 -448 -528
WIRE 912 -480 912 -528
WIRE 1040 -480 1040 -528
WIRE 224 -416 192 -416
WIRE 272 -368 272 -400
WIRE 912 -368 912 -416
WIRE 1040 -368 1040 -416
WIRE 1184 -368 1184 -416
WIRE -448 -352 -448 -400
WIRE 192 -288 192 -416
WIRE 224 -288 192 -288
WIRE 272 -240 272 -272
WIRE 304 -240 272 -240
WIRE -320 -224 -320 -528
WIRE 272 -208 272 -240
WIRE 272 -96 272 -128
WIRE 368 -96 272 -96
WIRE 272 -64 272 -96
WIRE 192 -16 192 -288
WIRE 304 -16 304 -240
WIRE 368 -16 368 -96
WIRE 480 -16 480 -480
WIRE -192 32 -192 -528
WIRE -96 32 -192 32
WIRE 128 32 -96 32
WIRE 608 32 608 -528
WIRE 608 32 544 32
WIRE -96 64 -96 32
WIRE 128 96 80 96
WIRE 752 96 752 -528
WIRE 752 96 544 96
WIRE 128 160 96 160
WIRE 672 160 544 160
WIRE 832 160 832 -528
WIRE 832 160 736 160
WIRE -96 176 -96 144
WIRE 80 176 80 96
WIRE 80 176 -96 176
WIRE -96 224 -96 176
WIRE 96 224 96 160
WIRE 96 224 64 224
WIRE 128 224 96 224
WIRE 1024 224 544 224
WIRE 128 288 96 288
WIRE 656 288 544 288
WIRE 832 288 832 160
WIRE 832 288 736 288
WIRE -192 352 -192 32
WIRE -96 352 -96 304
WIRE -16 352 -96 352
WIRE 64 352 64 224
WIRE 64 352 48 352
WIRE 704 352 544 352
WIRE 896 352 704 352
WIRE 704 368 704 352
WIRE 896 368 896 352
WIRE 1024 368 1024 224
WIRE 96 448 96 288
WIRE 832 448 832 288
WIRE 832 448 96 448
WIRE 208 464 208 400
WIRE 448 464 448 400
WIRE 896 464 896 448
WIRE -320 560 -320 -160
WIRE -192 560 -192 416
WIRE -192 560 -320 560
WIRE -96 560 -96 352
WIRE -96 560 -192 560
WIRE 208 560 208 528
WIRE 208 560 -96 560
WIRE 336 560 336 400
WIRE 336 560 208 560
WIRE 448 560 448 528
WIRE 448 560 336 560
WIRE 704 560 704 432
WIRE 704 560 448 560
WIRE 896 560 896 528
WIRE 896 560 704 560
WIRE 1024 560 1024 448
WIRE 1024 560 896 560
WIRE 336 592 336 560
FLAG 272 -64 0
FLAG 336 592 0
FLAG -448 -352 0
FLAG 1040 -368 0
FLAG 912 -368 0
FLAG 1184 -368 0
FLAG 1264 -528 OUT
SYMBOL PowerProducts\\LT8710 336 192 R0
SYMATTR InstName U1
SYMBOL nmos 224 -368 R0
SYMATTR InstName M1
SYMATTR Value IPB065N15N3
SYMBOL res 256 -224 R0
WINDOW 0 -122 26 Left 2
WINDOW 3 -47 65 Left 2
SYMATTR InstName R_SENSE1
SYMATTR Value 357µ
SYMBOL pmos 400 -480 R270
SYMATTR InstName M2
SYMATTR Value IRF9640
SYMBOL res 736 -544 R90
WINDOW 0 0 56 VBottom 2
WINDOW 3 32 56 VTop 2
SYMATTR InstName R_SENSE2
SYMATTR Value 1.48m
SYMBOL ind -128 -512 R270
WINDOW 0 32 56 VTop 2
WINDOW 3 5 56 VBottom 2
SYMATTR InstName L1
SYMATTR Value 3.7µ
SYMATTR SpiceLine Rser=5m
SYMBOL res -112 48 R0
SYMATTR InstName R_IN1
SYMATTR Value 13.3k
SYMBOL cap 48 336 R90
WINDOW 0 0 32 VBottom 2
WINDOW 3 32 32 VTop 2
SYMATTR InstName C1
SYMATTR Value 2.2µ
SYMATTR SpiceLine Rser=5m
SYMBOL res -112 208 R0
SYMATTR InstName R_IN2
SYMATTR Value 10k
SYMBOL cap -176 416 R180
WINDOW 0 24 56 Left 2
WINDOW 3 24 8 Left 2
SYMATTR InstName C_IN1
SYMATTR Value 43m
SYMATTR SpiceLine Lser=5m
SYMBOL cap 192 464 R0
SYMATTR InstName C_IMON
SYMATTR Value 43n
SYMBOL cap 432 464 R0
SYMATTR InstName C_SS
SYMATTR Value 1n
SYMATTR SpiceLine Rser=5m
SYMBOL cap -336 -224 R0
SYMATTR InstName C_IN2
SYMATTR Value 330µ
SYMATTR SpiceLine Rser=5m
SYMBOL voltage -448 -496 R0
WINDOW 123 0 0 Left 0
WINDOW 39 24 44 Left 2
SYMATTR InstName V1
SYMATTR Value 60
SYMBOL cap 736 144 R90
WINDOW 0 0 32 VBottom 2
WINDOW 3 32 32 VTop 2
SYMATTR InstName C2
SYMATTR Value 2.2µ
SYMATTR SpiceLine Rser=5m
SYMBOL res 752 272 R90
WINDOW 0 0 56 VBottom 2
WINDOW 3 32 56 VTop 2
SYMATTR InstName R_FBX
SYMATTR Value 2Meg
SYMBOL cap 688 368 R0
SYMATTR InstName C_F
SYMATTR Value 100p
SYMATTR SpiceLine Rser=5m
SYMBOL res 880 352 R0
SYMATTR InstName R6
SYMATTR Value 18k
SYMBOL cap 880 464 R0
SYMATTR InstName C_C
SYMATTR Value 3.3n
SYMATTR SpiceLine Rser=5m
SYMBOL cap 896 -480 R0
SYMATTR InstName C_OUT1
SYMATTR Value 53µ
SYMATTR SpiceLine Rser=5m
SYMBOL cap 1024 -480 R0
SYMATTR InstName C_OUT2
SYMATTR Value 330µ
SYMATTR SpiceLine Rser=5m
SYMBOL res 1008 352 R0
SYMATTR InstName R_T
SYMATTR Value 120k
SYMBOL nmos 224 -496 R0
SYMATTR InstName M3
SYMATTR Value IPB065N15N3
SYMBOL res 1168 -512 R0
SYMATTR InstName R1
SYMATTR Value 100
TEXT -432 672 Left 2 !.tran 40m uic
