Version 4.1
SHEET 1 3608 3140
WIRE 1328 -144 1120 -144
WIRE 1616 -144 1472 -144
WIRE 1776 -144 1680 -144
WIRE 1328 -128 1328 -144
WIRE 1472 -128 1472 -144
WIRE 1776 -48 1776 -144
WIRE 1968 -48 1776 -48
WIRE 2160 -48 2048 -48
WIRE 2224 -48 2160 -48
WIRE 2320 -48 2224 -48
WIRE 2400 -48 2320 -48
WIRE 2496 -48 2400 -48
WIRE 2624 -48 2496 -48
WIRE 1328 -16 1328 -48
WIRE 1328 -16 240 -16
WIRE 1472 -16 1472 -48
WIRE 1536 -16 1472 -16
WIRE 2224 -16 2224 -48
WIRE 2320 -16 2320 -48
WIRE 2496 16 2496 -48
WIRE 2624 16 2624 -48
WIRE 1328 32 1328 -16
WIRE 1472 32 1472 -16
WIRE 1536 32 1536 -16
WIRE 16 48 -128 48
WIRE 64 48 16 48
WIRE 144 48 64 48
WIRE 240 48 240 -16
WIRE 240 48 144 48
WIRE 64 64 64 48
WIRE 144 64 144 48
WIRE -128 96 -128 48
WIRE 64 144 64 128
WIRE 144 144 144 128
WIRE 1472 144 1472 112
WIRE 1616 144 1472 144
WIRE 1776 144 1776 -48
WIRE 1776 144 1680 144
WIRE 2496 144 2496 96
WIRE 2624 144 2624 96
WIRE 2400 176 2400 -48
WIRE 2400 176 2352 176
WIRE 640 192 544 192
WIRE 752 192 640 192
WIRE 1328 192 1328 112
WIRE 1616 192 1328 192
WIRE -128 208 -128 176
WIRE 544 208 544 192
WIRE 640 224 640 192
WIRE 752 224 752 192
WIRE 2448 224 2400 224
WIRE 240 256 240 48
WIRE 2400 256 2400 224
WIRE 2496 256 2496 240
WIRE 2496 256 2400 256
WIRE 544 288 544 256
WIRE 1184 288 1056 288
WIRE 1296 288 1184 288
WIRE 1680 288 1552 288
WIRE 1792 288 1680 288
WIRE 2496 288 2496 256
WIRE 544 304 544 288
WIRE 640 304 640 288
WIRE 1120 320 1120 -144
WIRE 1232 320 1120 320
WIRE 1344 320 1232 320
WIRE 1616 320 1616 192
WIRE 1728 320 1616 320
WIRE 1840 320 1728 320
WIRE 752 352 752 304
WIRE 240 400 240 336
WIRE 240 400 144 400
WIRE 576 400 240 400
WIRE 944 400 912 400
WIRE 1056 400 1056 288
WIRE 1056 400 1024 400
WIRE 1072 400 1056 400
WIRE 1184 400 1184 288
WIRE 1296 400 1296 288
WIRE 1552 400 1552 288
WIRE 1552 400 1536 400
WIRE 1568 400 1552 400
WIRE 1680 400 1680 288
WIRE 1792 400 1792 288
WIRE 544 416 368 416
WIRE 1232 416 1120 416
WIRE 1344 416 1232 416
WIRE 1728 416 1616 416
WIRE 1840 416 1728 416
WIRE 144 432 144 400
WIRE 240 432 240 400
WIRE 368 432 368 416
WIRE 448 464 432 464
WIRE 544 464 544 416
WIRE 544 464 528 464
WIRE 576 464 544 464
WIRE 1456 464 912 464
WIRE 1536 464 1536 400
WIRE 144 528 144 496
WIRE 240 528 240 512
WIRE 240 528 144 528
WIRE 368 528 368 496
WIRE 368 528 240 528
WIRE 432 528 432 464
WIRE 576 528 432 528
WIRE 960 528 912 528
WIRE 1120 528 1120 416
WIRE 1120 528 1040 528
WIRE 1616 528 1616 416
WIRE 1616 528 1120 528
WIRE 1648 528 1616 528
WIRE 2352 544 2352 176
WIRE 2640 544 2352 544
WIRE 240 560 240 528
WIRE 2160 560 2160 -48
WIRE 480 592 448 592
WIRE 576 592 560 592
WIRE 1024 592 912 592
WIRE 1152 592 1104 592
WIRE 448 608 448 592
WIRE 576 656 496 656
WIRE 1152 656 912 656
WIRE 2160 656 2160 640
WIRE 2160 656 1152 656
WIRE 2416 656 2160 656
WIRE 2768 656 2496 656
WIRE 496 672 496 656
WIRE 752 720 752 704
WIRE 848 720 848 704
WIRE 656 736 656 704
WIRE 496 768 496 736
WIRE 656 816 656 800
WIRE 1312 992 1104 992
WIRE 1600 992 1456 992
WIRE 1760 992 1664 992
WIRE 1312 1008 1312 992
WIRE 1456 1008 1456 992
WIRE 1760 1088 1760 992
WIRE 1952 1088 1760 1088
WIRE 2144 1088 2032 1088
WIRE 2208 1088 2144 1088
WIRE 2304 1088 2208 1088
WIRE 2640 1088 2640 544
WIRE 2640 1088 2304 1088
WIRE 1312 1120 1312 1088
WIRE 1312 1120 224 1120
WIRE 1456 1120 1456 1088
WIRE 1520 1120 1456 1120
WIRE 2208 1120 2208 1088
WIRE 2304 1120 2304 1088
WIRE 1312 1168 1312 1120
WIRE 1456 1168 1456 1120
WIRE 1520 1168 1520 1120
WIRE 16 1184 16 48
WIRE 48 1184 16 1184
WIRE 128 1184 48 1184
WIRE 224 1184 224 1120
WIRE 224 1184 128 1184
WIRE 48 1200 48 1184
WIRE 128 1200 128 1184
WIRE 48 1280 48 1264
WIRE 128 1280 128 1264
WIRE 1456 1280 1456 1248
WIRE 1600 1280 1456 1280
WIRE 1760 1280 1760 1088
WIRE 1760 1280 1664 1280
WIRE 624 1328 528 1328
WIRE 736 1328 624 1328
WIRE 1312 1328 1312 1248
WIRE 1600 1328 1312 1328
WIRE 528 1344 528 1328
WIRE 624 1360 624 1328
WIRE 736 1360 736 1328
WIRE 224 1392 224 1184
WIRE 528 1424 528 1392
WIRE 1168 1424 1040 1424
WIRE 1280 1424 1168 1424
WIRE 1664 1424 1536 1424
WIRE 1776 1424 1664 1424
WIRE 528 1440 528 1424
WIRE 624 1440 624 1424
WIRE 1104 1456 1104 992
WIRE 1216 1456 1104 1456
WIRE 1328 1456 1216 1456
WIRE 1600 1456 1600 1328
WIRE 1712 1456 1600 1456
WIRE 1824 1456 1712 1456
WIRE 736 1488 736 1440
WIRE 224 1536 224 1472
WIRE 224 1536 128 1536
WIRE 560 1536 224 1536
WIRE 928 1536 896 1536
WIRE 1040 1536 1040 1424
WIRE 1040 1536 1008 1536
WIRE 1056 1536 1040 1536
WIRE 1168 1536 1168 1424
WIRE 1280 1536 1280 1424
WIRE 1536 1536 1536 1424
WIRE 1536 1536 1520 1536
WIRE 1552 1536 1536 1536
WIRE 1664 1536 1664 1424
WIRE 1776 1536 1776 1424
WIRE 528 1552 352 1552
WIRE 1216 1552 1104 1552
WIRE 1328 1552 1216 1552
WIRE 1712 1552 1600 1552
WIRE 1824 1552 1712 1552
WIRE 128 1568 128 1536
WIRE 224 1568 224 1536
WIRE 352 1568 352 1552
WIRE 432 1600 416 1600
WIRE 528 1600 528 1552
WIRE 528 1600 512 1600
WIRE 560 1600 528 1600
WIRE 1440 1600 896 1600
WIRE 1520 1600 1520 1536
WIRE 128 1664 128 1632
WIRE 224 1664 224 1648
WIRE 224 1664 128 1664
WIRE 352 1664 352 1632
WIRE 352 1664 224 1664
WIRE 416 1664 416 1600
WIRE 560 1664 416 1664
WIRE 944 1664 896 1664
WIRE 1104 1664 1104 1552
WIRE 1104 1664 1024 1664
WIRE 1600 1664 1600 1552
WIRE 1600 1664 1104 1664
WIRE 1632 1664 1600 1664
WIRE 224 1696 224 1664
WIRE 2144 1696 2144 1088
WIRE 464 1728 432 1728
WIRE 560 1728 544 1728
WIRE 1008 1728 896 1728
WIRE 1136 1728 1088 1728
WIRE 432 1744 432 1728
WIRE 560 1792 480 1792
WIRE 1136 1792 896 1792
WIRE 2144 1792 2144 1776
WIRE 2144 1792 1136 1792
WIRE 2448 1792 2144 1792
WIRE 2768 1792 2768 656
WIRE 2768 1792 2528 1792
WIRE 480 1808 480 1792
WIRE 736 1856 736 1840
WIRE 832 1856 832 1840
WIRE 640 1872 640 1840
WIRE 480 1904 480 1872
WIRE 640 1952 640 1936
WIRE 1296 2160 1088 2160
WIRE 1584 2160 1440 2160
WIRE 1744 2160 1648 2160
WIRE 1296 2176 1296 2160
WIRE 1440 2176 1440 2160
WIRE 1744 2256 1744 2160
WIRE 1936 2256 1744 2256
WIRE 2128 2256 2016 2256
WIRE 2192 2256 2128 2256
WIRE 2288 2256 2192 2256
WIRE 2640 2256 2640 1088
WIRE 2640 2256 2288 2256
WIRE 1296 2288 1296 2256
WIRE 1296 2288 208 2288
WIRE 1440 2288 1440 2256
WIRE 1504 2288 1440 2288
WIRE 2192 2288 2192 2256
WIRE 2288 2288 2288 2256
WIRE 1296 2336 1296 2288
WIRE 1440 2336 1440 2288
WIRE 1504 2336 1504 2288
WIRE 16 2352 16 1184
WIRE 32 2352 16 2352
WIRE 112 2352 32 2352
WIRE 208 2352 208 2288
WIRE 208 2352 112 2352
WIRE 32 2368 32 2352
WIRE 112 2368 112 2352
WIRE 32 2448 32 2432
WIRE 112 2448 112 2432
WIRE 1440 2448 1440 2416
WIRE 1584 2448 1440 2448
WIRE 1744 2448 1744 2256
WIRE 1744 2448 1648 2448
WIRE 608 2496 512 2496
WIRE 720 2496 608 2496
WIRE 1296 2496 1296 2416
WIRE 1584 2496 1296 2496
WIRE 512 2512 512 2496
WIRE 608 2528 608 2496
WIRE 720 2528 720 2496
WIRE 208 2560 208 2352
WIRE 512 2592 512 2560
WIRE 1152 2592 1024 2592
WIRE 1264 2592 1152 2592
WIRE 1648 2592 1520 2592
WIRE 1760 2592 1648 2592
WIRE 512 2608 512 2592
WIRE 608 2608 608 2592
WIRE 1088 2624 1088 2160
WIRE 1200 2624 1088 2624
WIRE 1312 2624 1200 2624
WIRE 1584 2624 1584 2496
WIRE 1696 2624 1584 2624
WIRE 1808 2624 1696 2624
WIRE 720 2656 720 2608
WIRE 208 2704 208 2640
WIRE 208 2704 112 2704
WIRE 544 2704 208 2704
WIRE 912 2704 880 2704
WIRE 1024 2704 1024 2592
WIRE 1024 2704 992 2704
WIRE 1040 2704 1024 2704
WIRE 1152 2704 1152 2592
WIRE 1264 2704 1264 2592
WIRE 1520 2704 1520 2592
WIRE 1520 2704 1504 2704
WIRE 1536 2704 1520 2704
WIRE 1648 2704 1648 2592
WIRE 1760 2704 1760 2592
WIRE 512 2720 336 2720
WIRE 1200 2720 1088 2720
WIRE 1312 2720 1200 2720
WIRE 1696 2720 1584 2720
WIRE 1808 2720 1696 2720
WIRE 112 2736 112 2704
WIRE 208 2736 208 2704
WIRE 336 2736 336 2720
WIRE 416 2768 400 2768
WIRE 512 2768 512 2720
WIRE 512 2768 496 2768
WIRE 544 2768 512 2768
WIRE 1424 2768 880 2768
WIRE 1504 2768 1504 2704
WIRE 112 2832 112 2800
WIRE 208 2832 208 2816
WIRE 208 2832 112 2832
WIRE 336 2832 336 2800
WIRE 336 2832 208 2832
WIRE 400 2832 400 2768
WIRE 544 2832 400 2832
WIRE 928 2832 880 2832
WIRE 1088 2832 1088 2720
WIRE 1088 2832 1008 2832
WIRE 1584 2832 1584 2720
WIRE 1584 2832 1088 2832
WIRE 1616 2832 1584 2832
WIRE 208 2864 208 2832
WIRE 2128 2864 2128 2256
WIRE 448 2896 416 2896
WIRE 544 2896 528 2896
WIRE 992 2896 880 2896
WIRE 1120 2896 1072 2896
WIRE 416 2912 416 2896
WIRE 544 2960 464 2960
WIRE 1120 2960 880 2960
WIRE 2128 2960 2128 2944
WIRE 2128 2960 1120 2960
WIRE 2464 2960 2128 2960
WIRE 464 2976 464 2960
WIRE 2464 2976 2464 2960
WIRE 2768 2976 2768 1792
WIRE 2768 2976 2544 2976
WIRE 720 3024 720 3008
WIRE 816 3024 816 3008
WIRE 624 3040 624 3008
WIRE 464 3072 464 3040
WIRE 624 3120 624 3104
FLAG 64 144 0
FLAG 144 144 0
FLAG -128 208 0
FLAG 544 304 0
FLAG 640 304 0
FLAG 240 560 0
FLAG 448 608 0
FLAG 496 768 0
FLAG 752 720 0
FLAG 848 720 0
FLAG 656 816 0
FLAG 1728 528 0
FLAG 2160 736 0
FLAG 2224 48 0
FLAG 2320 48 0
FLAG 2496 288 0
FLAG 2624 -48 OUT
FLAG -128 48 IN
FLAG 2624 144 0
FLAG 1536 32 0
FLAG 48 1280 0
FLAG 128 1280 0
FLAG 528 1440 0
FLAG 624 1440 0
FLAG 224 1696 0
FLAG 432 1744 0
FLAG 480 1904 0
FLAG 736 1856 0
FLAG 832 1856 0
FLAG 640 1952 0
FLAG 1712 1664 0
FLAG 2144 1872 0
FLAG 2208 1184 0
FLAG 2304 1184 0
FLAG 1520 1168 0
FLAG 32 2448 0
FLAG 112 2448 0
FLAG 512 2608 0
FLAG 608 2608 0
FLAG 208 2864 0
FLAG 416 2912 0
FLAG 464 3072 0
FLAG 720 3024 0
FLAG 816 3024 0
FLAG 624 3120 0
FLAG 1696 2832 0
FLAG 2128 3040 0
FLAG 2192 2352 0
FLAG 2288 2352 0
FLAG 1504 2336 0
SYMBOL voltage -128 80 R0
WINDOW 123 0 0 Left 0
WINDOW 39 24 124 Left 2
SYMATTR SpiceLine Rser=1m
SYMATTR InstName V1
SYMATTR Value 60
SYMBOL cap 48 64 R0
SYMATTR InstName C3
SYMATTR Value 220µ
SYMBOL cap 128 64 R0
SYMATTR InstName C4
SYMATTR Value 220µ
SYMBOL LTC3721-1 752 528 R0
SYMATTR InstName U1
SYMBOL res 736 208 R0
SYMATTR InstName R1
SYMATTR Value 0
SYMBOL cap 624 224 R0
SYMATTR InstName C6
SYMATTR Value 47µ
SYMBOL voltage 544 192 R0
WINDOW 123 0 0 Left 0
WINDOW 39 0 0 Left 0
SYMATTR InstName V2
SYMATTR Value 10.5
SYMBOL res 224 240 R0
SYMATTR InstName R2
SYMATTR Value 15k
SYMBOL res 224 416 R0
SYMATTR InstName R3
SYMATTR Value 1.75k
SYMBOL cap 128 432 R0
SYMATTR InstName C7
SYMATTR Value 1n
SYMBOL res 544 448 R90
WINDOW 0 0 56 VBottom 2
WINDOW 3 32 56 VTop 2
SYMATTR InstName R4
SYMATTR Value 100k
SYMBOL cap 352 432 R0
SYMATTR InstName C8
SYMATTR Value 1µ
SYMBOL res 576 576 R90
WINDOW 0 0 56 VBottom 2
WINDOW 3 32 56 VTop 2
SYMATTR InstName R5
SYMATTR Value 100k
SYMBOL cap 480 672 R0
SYMATTR InstName C9
SYMATTR Value 10n
SYMBOL cap 640 736 R0
SYMATTR InstName C10
SYMATTR Value 337p
SYMBOL ind2 1344 -32 R180
WINDOW 0 36 80 Left 2
WINDOW 3 36 40 Left 2
SYMATTR InstName L1
SYMATTR Value 10µ
SYMATTR SpiceLine Rser=0.15m
SYMATTR Type ind
SYMBOL ind2 1344 128 R180
WINDOW 0 36 80 Left 2
WINDOW 3 36 40 Left 2
SYMATTR InstName L2
SYMATTR Value 10µ
SYMATTR SpiceLine Rser=0.15m
SYMATTR Type ind
SYMBOL ind2 1488 -144 M0
SYMATTR InstName L3
SYMATTR Value 160µ
SYMATTR SpiceLine Rser=24.45m Rpar=0 Cpar=0
SYMATTR Type ind
SYMBOL nmos 1184 320 R0
SYMATTR InstName M2
SYMATTR Value IPI200N25N3
SYMBOL nmos 1072 320 R0
SYMATTR InstName M1
SYMATTR Value IPI200N25N3
SYMBOL nmos 1296 320 R0
SYMATTR InstName M3
SYMATTR Value IPI200N25N3
SYMBOL res 1040 384 R90
WINDOW 0 0 56 VBottom 2
WINDOW 3 32 56 VTop 2
SYMATTR InstName R6
SYMATTR Value 1
SYMBOL nmos 1680 320 R0
SYMATTR InstName M5
SYMATTR Value IPI200N25N3
SYMBOL nmos 1568 320 R0
SYMATTR InstName M4
SYMATTR Value IPI200N25N3
SYMBOL nmos 1792 320 R0
SYMATTR InstName M6
SYMATTR Value IPI200N25N3
SYMBOL res 1552 448 R90
WINDOW 0 0 56 VBottom 2
WINDOW 3 32 56 VTop 2
SYMATTR InstName R7
SYMATTR Value 1
SYMBOL res 1056 512 R90
WINDOW 0 0 56 VBottom 2
WINDOW 3 32 56 VTop 2
SYMATTR InstName R8
SYMATTR Value 100
SYMBOL res 1744 512 R90
WINDOW 0 0 56 VBottom 2
WINDOW 3 32 56 VTop 2
SYMATTR InstName R9
SYMATTR Value 1m
SYMBOL res 2144 640 R0
SYMATTR InstName R10
SYMATTR Value 1k
SYMBOL res 2144 544 R0
SYMATTR InstName R11
SYMATTR Value 140k
SYMBOL cap 2208 -16 R0
SYMATTR InstName C12
SYMATTR Value 220µ
SYMBOL cap 2304 -16 R0
SYMATTR InstName C13
SYMATTR Value 220µ
SYMBOL ind 1952 -32 R270
WINDOW 0 32 56 VTop 2
WINDOW 3 5 56 VBottom 2
SYMATTR InstName L4
SYMATTR Value 110µ
SYMATTR SpiceLine Rpar=1m
SYMBOL res 1120 576 R90
WINDOW 0 0 56 VBottom 2
WINDOW 3 32 56 VTop 2
SYMATTR InstName R13
SYMATTR Value 200k
SYMBOL cap 1136 592 R0
SYMATTR InstName C16
SYMATTR Value 1µ
SYMBOL res 2480 0 R0
SYMATTR InstName R12
SYMATTR Value 19
SYMBOL nmos 2448 144 R0
SYMATTR InstName M7
SYMBOL res 2608 0 R0
SYMATTR InstName R14
SYMATTR Value 8
SYMBOL ind2 1488 16 M0
SYMATTR InstName L5
SYMATTR Value 160µ
SYMATTR SpiceLine Rser=24.45m Rpar=0 Cpar=0
SYMATTR Type ind
SYMBOL diode 1616 160 R270
WINDOW 0 32 32 VTop 2
WINDOW 3 0 32 VBottom 2
SYMATTR InstName D1
SYMBOL diode 1616 -128 R270
WINDOW 0 32 32 VTop 2
WINDOW 3 0 32 VBottom 2
SYMATTR InstName D2
SYMBOL cap 32 1200 R0
SYMATTR InstName C1
SYMATTR Value 220µ
SYMBOL cap 112 1200 R0
SYMATTR InstName C2
SYMATTR Value 220µ
SYMBOL LTC3721-1 736 1664 R0
SYMATTR InstName U2
SYMBOL res 720 1344 R0
SYMATTR InstName R15
SYMATTR Value 0
SYMBOL cap 608 1360 R0
SYMATTR InstName C5
SYMATTR Value 47µ
SYMBOL voltage 528 1328 R0
WINDOW 123 0 0 Left 0
WINDOW 39 0 0 Left 0
SYMATTR InstName V3
SYMATTR Value 10.5
SYMBOL res 208 1376 R0
SYMATTR InstName R16
SYMATTR Value 15k
SYMBOL res 208 1552 R0
SYMATTR InstName R17
SYMATTR Value 1.75k
SYMBOL cap 112 1568 R0
SYMATTR InstName C11
SYMATTR Value 1n
SYMBOL res 528 1584 R90
WINDOW 0 0 56 VBottom 2
WINDOW 3 32 56 VTop 2
SYMATTR InstName R18
SYMATTR Value 100k
SYMBOL cap 336 1568 R0
SYMATTR InstName C14
SYMATTR Value 1µ
SYMBOL res 560 1712 R90
WINDOW 0 0 56 VBottom 2
WINDOW 3 32 56 VTop 2
SYMATTR InstName R19
SYMATTR Value 100k
SYMBOL cap 464 1808 R0
SYMATTR InstName C15
SYMATTR Value 10n
SYMBOL cap 624 1872 R0
SYMATTR InstName C17
SYMATTR Value 337p
SYMBOL ind2 1328 1104 R180
WINDOW 0 36 80 Left 2
WINDOW 3 36 40 Left 2
SYMATTR InstName L6
SYMATTR Value 10µ
SYMATTR SpiceLine Rser=0.15m
SYMATTR Type ind
SYMBOL ind2 1328 1264 R180
WINDOW 0 36 80 Left 2
WINDOW 3 36 40 Left 2
SYMATTR InstName L7
SYMATTR Value 10µ
SYMATTR SpiceLine Rser=0.15m
SYMATTR Type ind
SYMBOL ind2 1472 992 M0
SYMATTR InstName L8
SYMATTR Value 160µ
SYMATTR SpiceLine Rser=24.45m Rpar=0 Cpar=0
SYMATTR Type ind
SYMBOL nmos 1168 1456 R0
SYMATTR InstName M8
SYMATTR Value IPI200N25N3
SYMBOL nmos 1056 1456 R0
SYMATTR InstName M9
SYMATTR Value IPI200N25N3
SYMBOL nmos 1280 1456 R0
SYMATTR InstName M10
SYMATTR Value IPI200N25N3
SYMBOL res 1024 1520 R90
WINDOW 0 0 56 VBottom 2
WINDOW 3 32 56 VTop 2
SYMATTR InstName R20
SYMATTR Value 1
SYMBOL nmos 1664 1456 R0
SYMATTR InstName M11
SYMATTR Value IPI200N25N3
SYMBOL nmos 1552 1456 R0
SYMATTR InstName M12
SYMATTR Value IPI200N25N3
SYMBOL nmos 1776 1456 R0
SYMATTR InstName M13
SYMATTR Value IPI200N25N3
SYMBOL res 1536 1584 R90
WINDOW 0 0 56 VBottom 2
WINDOW 3 32 56 VTop 2
SYMATTR InstName R21
SYMATTR Value 1
SYMBOL res 1040 1648 R90
WINDOW 0 0 56 VBottom 2
WINDOW 3 32 56 VTop 2
SYMATTR InstName R22
SYMATTR Value 100
SYMBOL res 1728 1648 R90
WINDOW 0 0 56 VBottom 2
WINDOW 3 32 56 VTop 2
SYMATTR InstName R23
SYMATTR Value 1m
SYMBOL res 2128 1776 R0
SYMATTR InstName R24
SYMATTR Value 1k
SYMBOL res 2128 1680 R0
SYMATTR InstName R25
SYMATTR Value 140k
SYMBOL cap 2192 1120 R0
SYMATTR InstName C18
SYMATTR Value 220µ
SYMBOL cap 2288 1120 R0
SYMATTR InstName C19
SYMATTR Value 220µ
SYMBOL ind 1936 1104 R270
WINDOW 0 32 56 VTop 2
WINDOW 3 5 56 VBottom 2
SYMATTR InstName L9
SYMATTR Value 110µ
SYMATTR SpiceLine Rpar=1m
SYMBOL res 1104 1712 R90
WINDOW 0 0 56 VBottom 2
WINDOW 3 32 56 VTop 2
SYMATTR InstName R26
SYMATTR Value 200k
SYMBOL cap 1120 1728 R0
SYMATTR InstName C20
SYMATTR Value 1µ
SYMBOL ind2 1472 1152 M0
SYMATTR InstName L10
SYMATTR Value 160µ
SYMATTR SpiceLine Rser=24.45m Rpar=0 Cpar=0
SYMATTR Type ind
SYMBOL diode 1600 1296 R270
WINDOW 0 32 32 VTop 2
WINDOW 3 0 32 VBottom 2
SYMATTR InstName D3
SYMBOL diode 1600 1008 R270
WINDOW 0 32 32 VTop 2
WINDOW 3 0 32 VBottom 2
SYMATTR InstName D4
SYMBOL cap 16 2368 R0
SYMATTR InstName C21
SYMATTR Value 220µ
SYMBOL cap 96 2368 R0
SYMATTR InstName C22
SYMATTR Value 220µ
SYMBOL LTC3721-1 720 2832 R0
SYMATTR InstName U3
SYMBOL res 704 2512 R0
SYMATTR InstName R29
SYMATTR Value 0
SYMBOL cap 592 2528 R0
SYMATTR InstName C23
SYMATTR Value 47µ
SYMBOL voltage 512 2496 R0
WINDOW 123 0 0 Left 0
WINDOW 39 0 0 Left 0
SYMATTR InstName V4
SYMATTR Value 10.5
SYMBOL res 192 2544 R0
SYMATTR InstName R30
SYMATTR Value 15k
SYMBOL res 192 2720 R0
SYMATTR InstName R31
SYMATTR Value 1.75k
SYMBOL cap 96 2736 R0
SYMATTR InstName C24
SYMATTR Value 1n
SYMBOL res 512 2752 R90
WINDOW 0 0 56 VBottom 2
WINDOW 3 32 56 VTop 2
SYMATTR InstName R32
SYMATTR Value 100k
SYMBOL cap 320 2736 R0
SYMATTR InstName C25
SYMATTR Value 1µ
SYMBOL res 544 2880 R90
WINDOW 0 0 56 VBottom 2
WINDOW 3 32 56 VTop 2
SYMATTR InstName R33
SYMATTR Value 100k
SYMBOL cap 448 2976 R0
SYMATTR InstName C26
SYMATTR Value 10n
SYMBOL cap 608 3040 R0
SYMATTR InstName C27
SYMATTR Value 337p
SYMBOL ind2 1312 2272 R180
WINDOW 0 36 80 Left 2
WINDOW 3 36 40 Left 2
SYMATTR InstName L11
SYMATTR Value 10µ
SYMATTR SpiceLine Rser=0.15m
SYMATTR Type ind
SYMBOL ind2 1312 2432 R180
WINDOW 0 36 80 Left 2
WINDOW 3 36 40 Left 2
SYMATTR InstName L12
SYMATTR Value 10µ
SYMATTR SpiceLine Rser=0.15m
SYMATTR Type ind
SYMBOL ind2 1456 2160 M0
SYMATTR InstName L13
SYMATTR Value 160µ
SYMATTR SpiceLine Rser=24.45m Rpar=0 Cpar=0
SYMATTR Type ind
SYMBOL nmos 1152 2624 R0
SYMATTR InstName M15
SYMATTR Value IPI200N25N3
SYMBOL nmos 1040 2624 R0
SYMATTR InstName M16
SYMATTR Value IPI200N25N3
SYMBOL nmos 1264 2624 R0
SYMATTR InstName M17
SYMATTR Value IPI200N25N3
SYMBOL res 1008 2688 R90
WINDOW 0 0 56 VBottom 2
WINDOW 3 32 56 VTop 2
SYMATTR InstName R34
SYMATTR Value 1
SYMBOL nmos 1648 2624 R0
SYMATTR InstName M18
SYMATTR Value IPI200N25N3
SYMBOL nmos 1536 2624 R0
SYMATTR InstName M19
SYMATTR Value IPI200N25N3
SYMBOL nmos 1760 2624 R0
SYMATTR InstName M20
SYMATTR Value IPI200N25N3
SYMBOL res 1520 2752 R90
WINDOW 0 0 56 VBottom 2
WINDOW 3 32 56 VTop 2
SYMATTR InstName R35
SYMATTR Value 1
SYMBOL res 1024 2816 R90
WINDOW 0 0 56 VBottom 2
WINDOW 3 32 56 VTop 2
SYMATTR InstName R36
SYMATTR Value 100
SYMBOL res 1712 2816 R90
WINDOW 0 0 56 VBottom 2
WINDOW 3 32 56 VTop 2
SYMATTR InstName R37
SYMATTR Value 1m
SYMBOL res 2112 2944 R0
SYMATTR InstName R38
SYMATTR Value 1k
SYMBOL res 2112 2848 R0
SYMATTR InstName R39
SYMATTR Value 140k
SYMBOL cap 2176 2288 R0
SYMATTR InstName C28
SYMATTR Value 220µ
SYMBOL cap 2272 2288 R0
SYMATTR InstName C29
SYMATTR Value 220µ
SYMBOL ind 1920 2272 R270
WINDOW 0 32 56 VTop 2
WINDOW 3 5 56 VBottom 2
SYMATTR InstName L14
SYMATTR Value 110µ
SYMATTR SpiceLine Rpar=1m
SYMBOL res 1088 2880 R90
WINDOW 0 0 56 VBottom 2
WINDOW 3 32 56 VTop 2
SYMATTR InstName R40
SYMATTR Value 200k
SYMBOL cap 1104 2896 R0
SYMATTR InstName C30
SYMATTR Value 1µ
SYMBOL ind2 1456 2320 M0
SYMATTR InstName L15
SYMATTR Value 160µ
SYMATTR SpiceLine Rser=24.45m Rpar=0 Cpar=0
SYMATTR Type ind
SYMBOL diode 1584 2464 R270
WINDOW 0 32 32 VTop 2
WINDOW 3 0 32 VBottom 2
SYMATTR InstName D5
SYMBOL diode 1584 2176 R270
WINDOW 0 32 32 VTop 2
WINDOW 3 0 32 VBottom 2
SYMATTR InstName D6
SYMBOL res 2512 640 R90
WINDOW 0 0 56 VBottom 2
WINDOW 3 32 56 VTop 2
SYMATTR InstName R27
SYMATTR Value 1.2k
SYMBOL res 2544 1776 R90
WINDOW 0 0 56 VBottom 2
WINDOW 3 32 56 VTop 2
SYMATTR InstName R28
SYMATTR Value 1.2k
SYMBOL res 2560 2960 R90
WINDOW 0 0 56 VBottom 2
WINDOW 3 32 56 VTop 2
SYMATTR InstName R41
SYMATTR Value 1.2k
TEXT 1328 -200 Left 2 !K1 L1 L2 L3 L5 0.95
TEXT 472 -160 Left 2 !.tran 0 10m 0 100n startup
TEXT 1312 936 Left 2 !K2 L6 L7 L8 L10 0.95
TEXT 1296 2104 Left 2 !K3 L11 L12 L13 L15 0.95
