Version 4.1
SHEET 1 3100 836
WIRE 1552 -160 1552 -192
WIRE 1328 -144 1120 -144
WIRE 1328 -128 1328 -144
WIRE 1552 -48 1552 -96
WIRE 1552 -48 1472 -48
WIRE 1680 -48 1552 -48
WIRE 1888 -48 1744 -48
WIRE 1968 -48 1888 -48
WIRE 2160 -48 2048 -48
WIRE 2224 -48 2160 -48
WIRE 2320 -48 2224 -48
WIRE 2496 -48 2320 -48
WIRE 2624 -48 2496 -48
WIRE 1328 -16 1328 -48
WIRE 1328 -16 240 -16
WIRE 2224 -16 2224 -48
WIRE 2320 -16 2320 -48
WIRE 2496 16 2496 -48
WIRE 2624 16 2624 -48
WIRE 1328 32 1328 -16
WIRE 1552 32 1472 32
WIRE 1680 32 1552 32
WIRE 1888 32 1888 -48
WIRE 1888 32 1744 32
WIRE 64 48 -64 48
WIRE 144 48 64 48
WIRE 240 48 240 -16
WIRE 240 48 144 48
WIRE 64 64 64 48
WIRE 144 64 144 48
WIRE 1552 64 1552 32
WIRE -64 96 -64 48
WIRE 64 144 64 128
WIRE 144 144 144 128
WIRE 2496 144 2496 96
WIRE 2624 144 2624 96
WIRE 1552 160 1552 128
WIRE 640 192 544 192
WIRE 752 192 640 192
WIRE 1328 192 1328 112
WIRE 1616 192 1328 192
WIRE -64 208 -64 176
WIRE 544 208 544 192
WIRE 640 224 640 192
WIRE 752 224 752 192
WIRE 2448 224 2400 224
WIRE 240 256 240 48
WIRE 2400 256 2400 224
WIRE 2496 256 2496 240
WIRE 2496 256 2400 256
WIRE 544 288 544 256
WIRE 1184 288 1056 288
WIRE 1296 288 1184 288
WIRE 1680 288 1552 288
WIRE 1792 288 1680 288
WIRE 2496 288 2496 256
WIRE 544 304 544 288
WIRE 640 304 640 288
WIRE 1120 320 1120 -144
WIRE 1232 320 1120 320
WIRE 1344 320 1232 320
WIRE 1616 320 1616 192
WIRE 1728 320 1616 320
WIRE 1840 320 1728 320
WIRE 752 352 752 304
WIRE 240 400 240 336
WIRE 240 400 144 400
WIRE 576 400 240 400
WIRE 944 400 912 400
WIRE 1056 400 1056 288
WIRE 1056 400 1024 400
WIRE 1072 400 1056 400
WIRE 1184 400 1184 288
WIRE 1296 400 1296 288
WIRE 1552 400 1552 288
WIRE 1552 400 1536 400
WIRE 1568 400 1552 400
WIRE 1680 400 1680 288
WIRE 1792 400 1792 288
WIRE 544 416 368 416
WIRE 1232 416 1120 416
WIRE 1344 416 1232 416
WIRE 1728 416 1616 416
WIRE 1840 416 1728 416
WIRE 144 432 144 400
WIRE 240 432 240 400
WIRE 368 432 368 416
WIRE 448 464 432 464
WIRE 544 464 544 416
WIRE 544 464 528 464
WIRE 576 464 544 464
WIRE 1456 464 912 464
WIRE 1536 464 1536 400
WIRE 144 528 144 496
WIRE 240 528 240 512
WIRE 240 528 144 528
WIRE 368 528 368 496
WIRE 368 528 240 528
WIRE 432 528 432 464
WIRE 576 528 432 528
WIRE 960 528 912 528
WIRE 1120 528 1120 416
WIRE 1120 528 1040 528
WIRE 1616 528 1616 416
WIRE 1616 528 1120 528
WIRE 1648 528 1616 528
WIRE 240 560 240 528
WIRE 2160 560 2160 -48
WIRE 480 592 448 592
WIRE 576 592 560 592
WIRE 1024 592 912 592
WIRE 1152 592 1104 592
WIRE 448 608 448 592
WIRE 576 656 496 656
WIRE 1152 656 912 656
WIRE 2160 656 2160 640
WIRE 2160 656 1152 656
WIRE 496 672 496 656
WIRE 752 720 752 704
WIRE 848 720 848 704
WIRE 656 736 656 704
WIRE 496 768 496 736
WIRE 656 816 656 800
FLAG 64 144 0
FLAG 144 144 0
FLAG -64 208 0
FLAG 544 304 0
FLAG 640 304 0
FLAG 240 560 0
FLAG 448 608 0
FLAG 496 768 0
FLAG 752 720 0
FLAG 848 720 0
FLAG 656 816 0
FLAG 1728 528 0
FLAG 2160 736 0
FLAG 2224 48 0
FLAG 2320 48 0
FLAG 2496 288 0
FLAG 1552 160 0
FLAG 1552 -192 0
FLAG 2624 -48 OUT
FLAG -64 48 IN
FLAG 2624 144 0
SYMBOL voltage -64 80 R0
WINDOW 123 0 0 Left 0
WINDOW 39 24 124 Left 2
SYMATTR SpiceLine Rser=1m
SYMATTR InstName V1
SYMATTR Value 60
SYMBOL cap 48 64 R0
SYMATTR InstName C3
SYMATTR Value 1µ
SYMBOL cap 128 64 R0
SYMATTR InstName C4
SYMATTR Value 1µ
SYMBOL PowerProducts\\LTC3721-1 752 528 R0
SYMATTR InstName U1
SYMBOL res 736 208 R0
SYMATTR InstName R1
SYMATTR Value 0
SYMBOL cap 624 224 R0
SYMATTR InstName C6
SYMATTR Value 47µ
SYMBOL voltage 544 192 R0
WINDOW 123 0 0 Left 0
WINDOW 39 0 0 Left 0
SYMATTR InstName V2
SYMATTR Value 10.5
SYMBOL res 224 240 R0
SYMATTR InstName R2
SYMATTR Value 15k
SYMBOL res 224 416 R0
SYMATTR InstName R3
SYMATTR Value 1.75k
SYMBOL cap 128 432 R0
SYMATTR InstName C7
SYMATTR Value 1n
SYMBOL res 544 448 R90
WINDOW 0 0 56 VBottom 2
WINDOW 3 32 56 VTop 2
SYMATTR InstName R4
SYMATTR Value 100k
SYMBOL cap 352 432 R0
SYMATTR InstName C8
SYMATTR Value 1µ
SYMBOL res 576 576 R90
WINDOW 0 0 56 VBottom 2
WINDOW 3 32 56 VTop 2
SYMATTR InstName R5
SYMATTR Value 100k
SYMBOL cap 480 672 R0
SYMATTR InstName C9
SYMATTR Value 10n
SYMBOL cap 640 736 R0
SYMATTR InstName C10
SYMATTR Value 337p
SYMBOL ind 1344 -32 R180
WINDOW 0 36 80 Left 2
WINDOW 3 36 40 Left 2
SYMATTR InstName L1
SYMATTR Value 12.5µ
SYMATTR SpiceLine Rser=0.15m
SYMBOL ind 1344 128 R180
WINDOW 0 36 80 Left 2
WINDOW 3 36 40 Left 2
SYMATTR InstName L2
SYMATTR Value 12.5µ
SYMATTR SpiceLine Rser=0.15m
SYMBOL ind 1488 -64 M0
SYMATTR InstName L3
SYMATTR Value 400µ
SYMATTR SpiceLine Rser=24.45m Rpar=0 Cpar=0
SYMBOL nmos 1184 320 R0
SYMATTR InstName M2
SYMATTR Value IPI200N25N3
SYMBOL nmos 1072 320 R0
SYMATTR InstName M1
SYMATTR Value IPI200N25N3
SYMBOL nmos 1296 320 R0
SYMATTR InstName M3
SYMATTR Value IPI200N25N3
SYMBOL res 1040 384 R90
WINDOW 0 0 56 VBottom 2
WINDOW 3 32 56 VTop 2
SYMATTR InstName R6
SYMATTR Value 10
SYMBOL nmos 1680 320 R0
SYMATTR InstName M5
SYMATTR Value IPI200N25N3
SYMBOL nmos 1568 320 R0
SYMATTR InstName M4
SYMATTR Value IPI200N25N3
SYMBOL nmos 1792 320 R0
SYMATTR InstName M6
SYMATTR Value IPI200N25N3
SYMBOL res 1552 448 R90
WINDOW 0 0 56 VBottom 2
WINDOW 3 32 56 VTop 2
SYMATTR InstName R7
SYMATTR Value 10
SYMBOL res 1056 512 R90
WINDOW 0 0 56 VBottom 2
WINDOW 3 32 56 VTop 2
SYMATTR InstName R8
SYMATTR Value 100
SYMBOL res 1744 512 R90
WINDOW 0 0 56 VBottom 2
WINDOW 3 32 56 VTop 2
SYMATTR InstName R9
SYMATTR Value 1m
SYMBOL res 2144 640 R0
SYMATTR InstName R10
SYMATTR Value 1k
SYMBOL res 2144 544 R0
SYMATTR InstName R11
SYMATTR Value 140k
SYMBOL cap 2208 -16 R0
SYMATTR InstName C12
SYMATTR Value 220µ
SYMBOL cap 2304 -16 R0
SYMATTR InstName C13
SYMATTR Value 1µ
SYMBOL ind 1952 -32 R270
WINDOW 0 32 56 VTop 2
WINDOW 3 5 56 VBottom 2
SYMATTR InstName L4
SYMATTR Value 110µ
SYMATTR SpiceLine Rpar=1m
SYMBOL res 1120 576 R90
WINDOW 0 0 56 VBottom 2
WINDOW 3 32 56 VTop 2
SYMATTR InstName R13
SYMATTR Value 200k
SYMBOL cap 1136 592 R0
SYMATTR InstName C16
SYMATTR Value 1µ
SYMBOL diode 1536 -160 R0
SYMATTR InstName D2
SYMBOL diode 1568 128 R180
WINDOW 0 24 64 Left 2
WINDOW 3 24 0 Left 2
SYMATTR InstName D1
SYMBOL diode 1680 48 R270
WINDOW 0 32 32 VTop 2
WINDOW 3 0 32 VBottom 2
SYMATTR InstName D3
SYMBOL diode 1680 -32 R270
WINDOW 0 32 32 VTop 2
WINDOW 3 0 32 VBottom 2
SYMATTR InstName D4
SYMBOL res 2480 0 R0
SYMATTR InstName R12
SYMATTR Value 19
SYMBOL nmos 2448 144 R0
SYMATTR InstName M7
SYMBOL res 2608 0 R0
SYMATTR InstName R14
SYMATTR Value 170
TEXT 1328 -200 Left 2 !K1 L1 L2 L3 0.95
TEXT 472 -160 Left 2 !.tran 0 8m 0 100n startup
