Version 4.1
SHEET 1 880 680
WIRE -96 -32 -288 -32
WIRE -16 -32 -96 -32
WIRE 112 -32 -16 -32
WIRE 432 -32 368 -32
WIRE -16 -16 -16 -32
WIRE -288 16 -288 -32
WIRE 112 32 96 32
WIRE 432 32 368 32
WIRE -16 64 -16 48
WIRE -96 96 -96 -32
WIRE -16 96 -96 96
WIRE 112 96 -16 96
WIRE 432 96 368 96
WIRE -16 112 -16 96
WIRE -288 128 -288 96
WIRE 112 160 96 160
WIRE 432 160 368 160
WIRE -16 192 -16 176
WIRE 112 224 96 224
WIRE 432 224 368 224
WIRE -96 288 -96 96
WIRE 112 288 -96 288
WIRE -96 352 -96 288
WIRE -16 352 -96 352
WIRE 112 352 64 352
WIRE 112 416 80 416
WIRE 80 464 80 416
WIRE 80 544 80 528
FLAG -288 128 0
FLAG 432 -32 OUT1
FLAG 432 32 OUT2
FLAG 432 96 OUT3
FLAG 432 160 OUT4
FLAG 432 224 OUT5
FLAG -16 64 0
FLAG -16 192 0
FLAG 80 544 0
FLAG 96 32 0
FLAG 96 160 0
FLAG 96 224 0
SYMBOL SpecialFunctions\\LTC6909 240 192 R0
SYMATTR InstName U1
SYMBOL voltage -288 0 R0
SYMATTR InstName V1
SYMATTR Value 3.3
SYMBOL cap 0 48 R180
WINDOW 0 24 56 Left 2
WINDOW 3 24 8 Left 2
SYMATTR InstName C1
SYMATTR Value 0.1”
SYMBOL cap 0 176 R180
WINDOW 0 24 56 Left 2
WINDOW 3 24 8 Left 2
SYMATTR InstName C2
SYMATTR Value 0.1”
SYMBOL res 80 336 R90
WINDOW 0 0 56 VBottom 2
WINDOW 3 32 56 VTop 2
SYMATTR InstName R1
SYMATTR Value 400k
SYMBOL cap 64 464 R0
SYMATTR InstName C3
SYMATTR Value 0.01”
TEXT 496 424 Left 2 !.tran .5m startup
