Version 4.1
SHEET 1 964 680
WIRE -16 48 -112 48
WIRE 64 48 -16 48
WIRE 80 48 64 48
WIRE 384 48 304 48
WIRE 496 48 384 48
WIRE -112 64 -112 48
WIRE -16 64 -16 48
WIRE 384 64 384 48
WIRE 496 64 496 48
WIRE 64 144 64 48
WIRE 80 144 64 144
WIRE 320 144 304 144
WIRE -112 160 -112 144
WIRE -16 160 -16 128
WIRE 384 160 384 128
WIRE 496 160 496 144
WIRE 80 240 64 240
WIRE 320 240 304 240
WIRE 416 240 400 240
FLAG 64 240 0
FLAG -112 160 0
FLAG 416 240 0
FLAG -112 48 IN
FLAG 496 48 OUT
FLAG 384 160 0
FLAG 496 160 0
FLAG 320 144 0
FLAG -16 160 0
SYMBOL voltage -112 48 R0
SYMATTR InstName V1
SYMATTR Value 12
SYMBOL cap 368 64 R0
SYMATTR InstName C1
SYMATTR Value 10”
SYMATTR SpiceLine Rser=30m
SYMBOL res 304 256 R270
WINDOW 0 32 56 VTop 2
WINDOW 3 0 56 VBottom 2
SYMATTR InstName R1
SYMATTR Value 3.48k
SYMBOL res 480 48 R0
SYMATTR InstName Rload
SYMATTR Value 60
SYMBOL PowerProducts\\LTM8067 192 144 R0
SYMATTR InstName U1
SYMBOL cap -32 64 R0
SYMATTR InstName C2
SYMATTR Value 4.7”
SYMATTR SpiceLine Rser=30m
TEXT 392 312 Left 2 !.tran 8m startup
TEXT -72 544 Left 2 !.meas Pin AVG -V(IN)*I(V1) FROM 7m TO 8m\n.meas Pout AVG V(OUT)*I(Rload) FROM 7m TO 8m\n.meas Eff PARAM Pout/Pin
