Version 4.1
SHEET 1 4400 6260
WIRE 2560 -544 2464 -544
WIRE 2736 -544 2624 -544
WIRE 2816 -544 2736 -544
WIRE 2960 -544 2896 -544
WIRE 3136 -544 3040 -544
WIRE 3232 -544 3136 -544
WIRE 3328 -544 3232 -544
WIRE 3424 -544 3328 -544
WIRE 3520 -544 3424 -544
WIRE 3568 -544 3520 -544
WIRE 3808 -544 3568 -544
WIRE 176 -512 -32 -512
WIRE 272 -512 176 -512
WIRE 368 -512 272 -512
WIRE 464 -512 368 -512
WIRE 560 -512 464 -512
WIRE 656 -512 560 -512
WIRE 752 -512 656 -512
WIRE 848 -512 752 -512
WIRE 2352 -512 848 -512
WIRE 2352 -496 2352 -512
WIRE 2464 -496 2464 -544
WIRE 2736 -496 2736 -544
WIRE 3136 -496 3136 -544
WIRE 3232 -496 3232 -544
WIRE 3328 -496 3328 -544
WIRE 3424 -496 3424 -544
WIRE 3520 -496 3520 -544
WIRE 3808 -496 3808 -544
WIRE -32 -464 -32 -512
WIRE 272 -464 272 -512
WIRE 368 -464 368 -512
WIRE 464 -464 464 -512
WIRE 560 -464 560 -512
WIRE 656 -464 656 -512
WIRE 2112 -400 2096 -400
WIRE 2192 -400 2176 -400
WIRE 2304 -400 2272 -400
WIRE 2320 -400 2304 -400
WIRE 2352 -368 2352 -416
WIRE 2464 -368 2464 -416
WIRE 2544 -368 2464 -368
WIRE 2736 -368 2736 -432
WIRE 3136 -368 3136 -432
WIRE 3232 -368 3232 -432
WIRE 3328 -368 3328 -432
WIRE 3424 -368 3424 -432
WIRE 3520 -368 3520 -432
WIRE 3808 -368 3808 -416
WIRE -32 -352 -32 -384
WIRE 2544 -352 2544 -368
WIRE 272 -336 272 -400
WIRE 368 -336 368 -400
WIRE 464 -336 464 -400
WIRE 560 -336 560 -400
WIRE 656 -336 656 -400
WIRE 1392 -336 1392 -352
WIRE 2096 -320 2096 -400
WIRE 2160 -320 2096 -320
WIRE 2304 -320 2304 -400
WIRE 2304 -320 2224 -320
WIRE 1296 -288 1296 -352
WIRE 2320 -272 2320 -400
WIRE 2352 -272 2352 -288
WIRE 2352 -272 2320 -272
WIRE 1120 -256 1104 -256
WIRE 1200 -256 1200 -304
WIRE 1200 -256 1184 -256
WIRE 1536 -240 1488 -240
WIRE 1616 -240 1536 -240
WIRE 1728 -240 1680 -240
WIRE 1808 -240 1728 -240
WIRE 1856 -240 1808 -240
WIRE 2000 -240 1936 -240
WIRE 2048 -240 2000 -240
WIRE 2544 -240 2544 -272
WIRE 2544 -240 2512 -240
WIRE 1392 -224 1392 -272
WIRE 1728 -224 1728 -240
WIRE 1808 -208 1808 -240
WIRE 848 -192 848 -512
WIRE 2096 -192 2096 -224
WIRE 2304 -176 2304 -320
WIRE 1200 -160 1200 -256
WIRE 1296 -160 1296 -208
WIRE 1392 -160 1392 -224
WIRE 1488 -160 1488 -240
WIRE 1728 -128 1728 -144
WIRE 1808 -128 1808 -144
WIRE 848 -96 848 -112
WIRE 1024 -96 848 -96
WIRE 1088 -96 1024 -96
WIRE 1680 -96 1600 -96
WIRE 2064 -96 1680 -96
WIRE 2208 -96 2144 -96
WIRE 2256 -96 2208 -96
WIRE 848 -80 848 -96
WIRE 752 -48 752 -512
WIRE 1024 0 944 0
WIRE 1088 0 1024 0
WIRE 1888 0 1600 0
WIRE 752 48 752 32
WIRE 944 48 944 0
WIRE 944 48 752 48
WIRE 752 64 752 48
WIRE 2400 64 2400 16
WIRE 944 96 880 96
WIRE 1040 96 1008 96
WIRE 1088 96 1040 96
WIRE 1664 96 1600 96
WIRE 1776 96 1664 96
WIRE 1888 96 1888 0
WIRE 1888 96 1856 96
WIRE 2304 96 2304 -80
WIRE 2304 96 1888 96
WIRE 2736 96 2720 96
WIRE 2832 96 2800 96
WIRE 2304 128 2304 96
WIRE 752 160 752 144
WIRE 944 192 880 192
WIRE 1040 192 1008 192
WIRE 1088 192 1040 192
WIRE 2224 192 1600 192
WIRE 2400 192 2400 144
WIRE 2496 192 2400 192
WIRE 2720 192 2720 96
WIRE 2720 192 2688 192
WIRE 2736 192 2720 192
WIRE 2832 192 2832 96
WIRE 2832 192 2816 192
WIRE 3216 192 3152 192
WIRE 3312 192 3280 192
WIRE 3472 192 3392 192
WIRE 3568 192 3568 -544
WIRE 2224 224 2224 192
WIRE 2304 224 2304 208
WIRE 2304 224 2224 224
WIRE 2304 240 2304 224
WIRE 1088 288 1056 288
WIRE 1648 288 1600 288
WIRE 1760 288 1648 288
WIRE 2064 288 1840 288
WIRE 2144 288 2064 288
WIRE 2352 288 2224 288
WIRE 2496 288 2352 288
WIRE 3152 288 3152 192
WIRE 3152 288 2688 288
WIRE 2352 304 2352 288
WIRE 3152 304 3152 288
WIRE 3184 304 3152 304
WIRE 3472 304 3472 192
WIRE 3472 304 3440 304
WIRE 3568 304 3568 272
WIRE 3568 304 3472 304
WIRE 3568 320 3568 304
WIRE 1088 384 1056 384
WIRE 1632 384 1600 384
WIRE 2064 384 2064 288
WIRE 2064 384 1632 384
WIRE 2352 400 2352 384
WIRE -448 416 -448 368
WIRE 2832 432 2832 192
WIRE 2832 432 2704 432
WIRE 2912 432 2832 432
WIRE 3056 432 3056 144
WIRE 3056 432 2992 432
WIRE 3184 432 3056 432
WIRE 3456 432 3440 432
WIRE 3568 432 3568 400
WIRE 2704 448 2704 432
WIRE 2832 448 2832 432
WIRE 3056 448 3056 432
WIRE 1088 480 1056 480
WIRE 3456 496 3440 496
WIRE -448 528 -448 496
WIRE 2704 528 2704 512
WIRE 2832 528 2832 512
WIRE 3056 528 3056 512
WIRE 1152 576 1152 544
WIRE 1248 576 1248 544
WIRE 1344 576 1344 544
WIRE 1152 688 1152 656
WIRE 1248 688 1248 656
WIRE 1344 688 1344 656
WIRE 2560 752 2464 752
WIRE 2736 752 2624 752
WIRE 2816 752 2736 752
WIRE 2944 752 2896 752
WIRE 3120 752 3024 752
WIRE 3216 752 3120 752
WIRE 3312 752 3216 752
WIRE 3408 752 3312 752
WIRE 3504 752 3408 752
WIRE 3568 752 3504 752
WIRE 176 784 176 -512
WIRE 272 784 176 784
WIRE 368 784 272 784
WIRE 464 784 368 784
WIRE 560 784 464 784
WIRE 656 784 560 784
WIRE 752 784 656 784
WIRE 848 784 752 784
WIRE 2352 784 848 784
WIRE -688 800 -752 800
WIRE -608 800 -688 800
WIRE -560 800 -608 800
WIRE -192 800 -336 800
WIRE -112 800 -192 800
WIRE 2352 800 2352 784
WIRE 2464 800 2464 752
WIRE 2736 800 2736 752
WIRE 3120 800 3120 752
WIRE 3216 800 3216 752
WIRE 3312 800 3312 752
WIRE 3408 800 3408 752
WIRE 3504 800 3504 752
WIRE -688 816 -688 800
WIRE -192 816 -192 800
WIRE 272 832 272 784
WIRE 368 832 368 784
WIRE 464 832 464 784
WIRE 560 832 560 784
WIRE 656 832 656 784
WIRE -688 896 -688 880
WIRE -608 896 -608 800
WIRE -560 896 -608 896
WIRE -320 896 -336 896
WIRE -192 896 -192 880
WIRE 2112 896 2096 896
WIRE 2192 896 2176 896
WIRE 2304 896 2272 896
WIRE 2320 896 2304 896
WIRE 2352 912 2352 880
WIRE 2464 928 2464 880
WIRE 2528 928 2464 928
WIRE 2736 928 2736 864
WIRE 3120 928 3120 864
WIRE 3216 928 3216 864
WIRE 3312 928 3312 864
WIRE 3408 928 3408 864
WIRE 3504 928 3504 864
WIRE 2528 944 2528 928
WIRE 272 960 272 896
WIRE 368 960 368 896
WIRE 464 960 464 896
WIRE 560 960 560 896
WIRE 656 960 656 896
WIRE 1392 960 1392 944
WIRE 2096 976 2096 896
WIRE 2160 976 2096 976
WIRE 2304 976 2304 896
WIRE 2304 976 2224 976
WIRE -560 992 -576 992
WIRE -320 992 -336 992
WIRE -224 992 -240 992
WIRE 1296 1008 1296 944
WIRE 2320 1008 2320 896
WIRE 2352 1008 2352 992
WIRE 2352 1008 2320 1008
WIRE 1120 1056 1104 1056
WIRE 1200 1056 1200 992
WIRE 1200 1056 1184 1056
WIRE 1536 1056 1488 1056
WIRE 1616 1056 1536 1056
WIRE 1728 1056 1680 1056
WIRE 1808 1056 1728 1056
WIRE 1856 1056 1808 1056
WIRE 2000 1056 1936 1056
WIRE 2048 1056 2000 1056
WIRE 2528 1056 2528 1024
WIRE 2528 1056 2512 1056
WIRE 1392 1072 1392 1024
WIRE 1728 1072 1728 1056
WIRE 1808 1088 1808 1056
WIRE 848 1104 848 784
WIRE 2096 1104 2096 1072
WIRE 2304 1120 2304 976
WIRE 1200 1136 1200 1056
WIRE 1296 1136 1296 1088
WIRE 1392 1136 1392 1072
WIRE 1488 1136 1488 1056
WIRE 1728 1168 1728 1152
WIRE 1808 1168 1808 1152
WIRE -688 1200 -752 1200
WIRE -608 1200 -688 1200
WIRE -560 1200 -608 1200
WIRE -192 1200 -336 1200
WIRE -112 1200 -192 1200
WIRE 848 1200 848 1184
WIRE 1024 1200 848 1200
WIRE 1088 1200 1024 1200
WIRE 1680 1200 1600 1200
WIRE 2064 1200 1680 1200
WIRE 2208 1200 2144 1200
WIRE 2256 1200 2208 1200
WIRE -688 1216 -688 1200
WIRE -192 1216 -192 1200
WIRE 848 1216 848 1200
WIRE 752 1248 752 784
WIRE -688 1296 -688 1280
WIRE -608 1296 -608 1200
WIRE -560 1296 -608 1296
WIRE -320 1296 -336 1296
WIRE -192 1296 -192 1280
WIRE 1024 1296 944 1296
WIRE 1088 1296 1024 1296
WIRE 1888 1296 1600 1296
WIRE 752 1344 752 1328
WIRE 944 1344 944 1296
WIRE 944 1344 752 1344
WIRE 752 1360 752 1344
WIRE 2400 1360 2400 1312
WIRE -560 1392 -576 1392
WIRE -320 1392 -336 1392
WIRE -224 1392 -240 1392
WIRE 944 1392 880 1392
WIRE 1040 1392 1008 1392
WIRE 1088 1392 1040 1392
WIRE 1664 1392 1600 1392
WIRE 1776 1392 1664 1392
WIRE 1888 1392 1888 1296
WIRE 1888 1392 1856 1392
WIRE 2304 1392 2304 1216
WIRE 2304 1392 1888 1392
WIRE 2736 1392 2720 1392
WIRE 2832 1392 2800 1392
WIRE 2304 1424 2304 1392
WIRE 752 1456 752 1440
WIRE 944 1488 880 1488
WIRE 1040 1488 1008 1488
WIRE 1088 1488 1040 1488
WIRE 2160 1488 1600 1488
WIRE 2400 1488 2400 1440
WIRE 2496 1488 2400 1488
WIRE 2720 1488 2720 1392
WIRE 2720 1488 2688 1488
WIRE 2736 1488 2720 1488
WIRE 2832 1488 2832 1392
WIRE 2832 1488 2816 1488
WIRE 3216 1488 3152 1488
WIRE 3312 1488 3280 1488
WIRE 3472 1488 3392 1488
WIRE 3568 1488 3568 752
WIRE 2160 1520 2160 1488
WIRE 2304 1520 2304 1504
WIRE 2304 1520 2160 1520
WIRE 2304 1536 2304 1520
WIRE 1088 1584 1056 1584
WIRE 1648 1584 1600 1584
WIRE 1760 1584 1648 1584
WIRE 2064 1584 1840 1584
WIRE 2160 1584 2064 1584
WIRE 2352 1584 2240 1584
WIRE 2496 1584 2352 1584
WIRE 3152 1584 3152 1488
WIRE 3152 1584 2688 1584
WIRE -688 1600 -752 1600
WIRE -608 1600 -688 1600
WIRE -560 1600 -608 1600
WIRE -192 1600 -336 1600
WIRE -112 1600 -192 1600
WIRE 2352 1600 2352 1584
WIRE 3152 1600 3152 1584
WIRE 3184 1600 3152 1600
WIRE 3472 1600 3472 1488
WIRE 3472 1600 3440 1600
WIRE 3568 1600 3568 1568
WIRE 3568 1600 3472 1600
WIRE -688 1616 -688 1600
WIRE -192 1616 -192 1600
WIRE 3568 1616 3568 1600
WIRE 1088 1680 1056 1680
WIRE 1632 1680 1600 1680
WIRE 2064 1680 2064 1584
WIRE 2064 1680 1632 1680
WIRE -688 1696 -688 1680
WIRE -608 1696 -608 1600
WIRE -560 1696 -608 1696
WIRE -320 1696 -336 1696
WIRE -192 1696 -192 1680
WIRE 2352 1696 2352 1680
WIRE 2832 1728 2832 1488
WIRE 2832 1728 2704 1728
WIRE 2912 1728 2832 1728
WIRE 3056 1728 3056 1440
WIRE 3056 1728 2992 1728
WIRE 3184 1728 3056 1728
WIRE 3456 1728 3440 1728
WIRE 3568 1728 3568 1696
WIRE 2704 1744 2704 1728
WIRE 2832 1744 2832 1728
WIRE 3056 1744 3056 1728
WIRE 1088 1776 1056 1776
WIRE -560 1792 -576 1792
WIRE -320 1792 -336 1792
WIRE -224 1792 -240 1792
WIRE 3456 1792 3440 1792
WIRE 2704 1824 2704 1808
WIRE 2832 1824 2832 1808
WIRE 3056 1824 3056 1808
WIRE 1152 1872 1152 1840
WIRE 1248 1872 1248 1840
WIRE 1344 1872 1344 1840
WIRE 1152 1984 1152 1952
WIRE 1248 1984 1248 1952
WIRE 1344 1984 1344 1952
WIRE -688 2000 -752 2000
WIRE -608 2000 -688 2000
WIRE -560 2000 -608 2000
WIRE -192 2000 -336 2000
WIRE -112 2000 -192 2000
WIRE -688 2016 -688 2000
WIRE -192 2016 -192 2000
WIRE 2560 2048 2464 2048
WIRE 2736 2048 2624 2048
WIRE 2816 2048 2736 2048
WIRE 2944 2048 2896 2048
WIRE 3104 2048 3024 2048
WIRE 3200 2048 3104 2048
WIRE 3296 2048 3200 2048
WIRE 3392 2048 3296 2048
WIRE 3488 2048 3392 2048
WIRE 3568 2048 3488 2048
WIRE 176 2080 176 784
WIRE 272 2080 176 2080
WIRE 368 2080 272 2080
WIRE 464 2080 368 2080
WIRE 560 2080 464 2080
WIRE 656 2080 560 2080
WIRE 752 2080 656 2080
WIRE 848 2080 752 2080
WIRE 2352 2080 848 2080
WIRE -688 2096 -688 2080
WIRE -608 2096 -608 2000
WIRE -560 2096 -608 2096
WIRE -320 2096 -336 2096
WIRE -192 2096 -192 2080
WIRE 2352 2096 2352 2080
WIRE 2464 2096 2464 2048
WIRE 2736 2096 2736 2048
WIRE 3104 2096 3104 2048
WIRE 3200 2096 3200 2048
WIRE 3296 2096 3296 2048
WIRE 3392 2096 3392 2048
WIRE 3488 2096 3488 2048
WIRE 272 2128 272 2080
WIRE 368 2128 368 2080
WIRE 464 2128 464 2080
WIRE 560 2128 560 2080
WIRE 656 2128 656 2080
WIRE -560 2192 -576 2192
WIRE -320 2192 -336 2192
WIRE -224 2192 -240 2192
WIRE 2112 2192 2096 2192
WIRE 2192 2192 2176 2192
WIRE 2304 2192 2272 2192
WIRE 2320 2192 2304 2192
WIRE 2352 2208 2352 2176
WIRE 2464 2224 2464 2176
WIRE 2544 2224 2464 2224
WIRE 2736 2224 2736 2160
WIRE 3104 2224 3104 2160
WIRE 3200 2224 3200 2160
WIRE 3296 2224 3296 2160
WIRE 3392 2224 3392 2160
WIRE 3488 2224 3488 2160
WIRE 2544 2240 2544 2224
WIRE 272 2256 272 2192
WIRE 368 2256 368 2192
WIRE 464 2256 464 2192
WIRE 560 2256 560 2192
WIRE 656 2256 656 2192
WIRE 1392 2256 1392 2240
WIRE 2096 2272 2096 2192
WIRE 2160 2272 2096 2272
WIRE 2304 2272 2304 2192
WIRE 2304 2272 2224 2272
WIRE 1296 2304 1296 2240
WIRE 2320 2304 2320 2192
WIRE 2352 2304 2352 2288
WIRE 2352 2304 2320 2304
WIRE 1120 2352 1104 2352
WIRE 1200 2352 1200 2288
WIRE 1200 2352 1184 2352
WIRE 1536 2352 1488 2352
WIRE 1616 2352 1536 2352
WIRE 1712 2352 1680 2352
WIRE 1808 2352 1712 2352
WIRE 1856 2352 1808 2352
WIRE 2000 2352 1936 2352
WIRE 2048 2352 2000 2352
WIRE 2544 2352 2544 2320
WIRE 2544 2352 2528 2352
WIRE 1392 2368 1392 2320
WIRE 1712 2368 1712 2352
WIRE 1808 2384 1808 2352
WIRE -688 2400 -752 2400
WIRE -608 2400 -688 2400
WIRE -560 2400 -608 2400
WIRE -192 2400 -336 2400
WIRE -112 2400 -192 2400
WIRE 848 2400 848 2080
WIRE 2096 2400 2096 2368
WIRE -688 2416 -688 2400
WIRE -192 2416 -192 2400
WIRE 2304 2416 2304 2272
WIRE 1200 2432 1200 2352
WIRE 1296 2432 1296 2384
WIRE 1392 2432 1392 2368
WIRE 1488 2432 1488 2352
WIRE 1712 2464 1712 2448
WIRE 1808 2464 1808 2448
WIRE -688 2496 -688 2480
WIRE -608 2496 -608 2400
WIRE -560 2496 -608 2496
WIRE -320 2496 -336 2496
WIRE -192 2496 -192 2480
WIRE 848 2496 848 2480
WIRE 1024 2496 848 2496
WIRE 1088 2496 1024 2496
WIRE 1680 2496 1600 2496
WIRE 2064 2496 1680 2496
WIRE 2208 2496 2144 2496
WIRE 2256 2496 2208 2496
WIRE 848 2512 848 2496
WIRE 752 2544 752 2080
WIRE -560 2592 -576 2592
WIRE -320 2592 -336 2592
WIRE -224 2592 -240 2592
WIRE 1024 2592 944 2592
WIRE 1088 2592 1024 2592
WIRE 1888 2592 1600 2592
WIRE 752 2640 752 2624
WIRE 944 2640 944 2592
WIRE 944 2640 752 2640
WIRE 752 2656 752 2640
WIRE 2400 2656 2400 2608
WIRE 944 2688 880 2688
WIRE 1040 2688 1008 2688
WIRE 1088 2688 1040 2688
WIRE 1664 2688 1600 2688
WIRE 1776 2688 1664 2688
WIRE 1888 2688 1888 2592
WIRE 1888 2688 1856 2688
WIRE 2304 2688 2304 2512
WIRE 2304 2688 1888 2688
WIRE 2736 2688 2720 2688
WIRE 2832 2688 2800 2688
WIRE 2304 2720 2304 2688
WIRE 752 2752 752 2736
WIRE 944 2784 880 2784
WIRE 1040 2784 1008 2784
WIRE 1088 2784 1040 2784
WIRE 2160 2784 1600 2784
WIRE 2400 2784 2400 2736
WIRE 2496 2784 2400 2784
WIRE 2720 2784 2720 2688
WIRE 2720 2784 2688 2784
WIRE 2736 2784 2720 2784
WIRE 2832 2784 2832 2688
WIRE 2832 2784 2816 2784
WIRE 3216 2784 3152 2784
WIRE 3312 2784 3280 2784
WIRE 3472 2784 3392 2784
WIRE 3568 2784 3568 2048
WIRE 2160 2816 2160 2784
WIRE 2304 2816 2304 2800
WIRE 2304 2816 2160 2816
WIRE 2304 2832 2304 2816
WIRE 1088 2880 1056 2880
WIRE 1648 2880 1600 2880
WIRE 1760 2880 1648 2880
WIRE 2064 2880 1840 2880
WIRE 2144 2880 2064 2880
WIRE 2352 2880 2224 2880
WIRE 2496 2880 2352 2880
WIRE 3152 2880 3152 2784
WIRE 3152 2880 2688 2880
WIRE -752 2896 -832 2896
WIRE -704 2896 -752 2896
WIRE -576 2896 -704 2896
WIRE -288 2896 -320 2896
WIRE 2352 2896 2352 2880
WIRE 3152 2896 3152 2880
WIRE 3184 2896 3152 2896
WIRE 3472 2896 3472 2784
WIRE 3472 2896 3440 2896
WIRE 3568 2896 3568 2864
WIRE 3568 2896 3472 2896
WIRE -704 2912 -704 2896
WIRE 3568 2912 3568 2896
WIRE -576 2960 -592 2960
WIRE -288 2960 -320 2960
WIRE 1088 2976 1056 2976
WIRE 1632 2976 1600 2976
WIRE 2064 2976 2064 2880
WIRE 2064 2976 1632 2976
WIRE -704 2992 -704 2976
WIRE 2352 2992 2352 2976
WIRE -752 3024 -752 2896
WIRE -704 3024 -752 3024
WIRE -576 3024 -704 3024
WIRE -288 3024 -320 3024
WIRE 2832 3024 2832 2784
WIRE 2832 3024 2704 3024
WIRE 2912 3024 2832 3024
WIRE 3056 3024 3056 2736
WIRE 3056 3024 2992 3024
WIRE 3184 3024 3056 3024
WIRE 3456 3024 3440 3024
WIRE 3568 3024 3568 2992
WIRE -704 3040 -704 3024
WIRE 2704 3040 2704 3024
WIRE 2832 3040 2832 3024
WIRE 3056 3040 3056 3024
WIRE 1088 3072 1056 3072
WIRE -576 3088 -592 3088
WIRE -288 3088 -320 3088
WIRE 3456 3088 3440 3088
WIRE -704 3120 -704 3104
WIRE 2704 3120 2704 3104
WIRE 2832 3120 2832 3104
WIRE 3056 3120 3056 3104
WIRE -576 3152 -592 3152
WIRE -288 3152 -320 3152
WIRE 1152 3168 1152 3136
WIRE 1248 3168 1248 3136
WIRE 1344 3168 1344 3136
WIRE -752 3216 -752 3024
WIRE -576 3216 -752 3216
WIRE -752 3280 -752 3216
WIRE -704 3280 -752 3280
WIRE -576 3280 -624 3280
WIRE 1152 3280 1152 3248
WIRE 1248 3280 1248 3248
WIRE 1344 3280 1344 3248
WIRE -576 3344 -656 3344
WIRE 2560 3344 2464 3344
WIRE 2736 3344 2624 3344
WIRE 2816 3344 2736 3344
WIRE 2944 3344 2896 3344
WIRE 3120 3344 3024 3344
WIRE 3216 3344 3120 3344
WIRE 3312 3344 3216 3344
WIRE 3408 3344 3312 3344
WIRE 3504 3344 3408 3344
WIRE 3568 3344 3504 3344
WIRE -656 3360 -656 3344
WIRE 176 3376 176 2080
WIRE 272 3376 176 3376
WIRE 368 3376 272 3376
WIRE 464 3376 368 3376
WIRE 560 3376 464 3376
WIRE 656 3376 560 3376
WIRE 752 3376 656 3376
WIRE 848 3376 752 3376
WIRE 2352 3376 848 3376
WIRE 2352 3392 2352 3376
WIRE 2464 3392 2464 3344
WIRE 2736 3392 2736 3344
WIRE 3120 3392 3120 3344
WIRE 3216 3392 3216 3344
WIRE 3312 3392 3312 3344
WIRE 3408 3392 3408 3344
WIRE 3504 3392 3504 3344
WIRE 272 3424 272 3376
WIRE 368 3424 368 3376
WIRE 464 3424 464 3376
WIRE 560 3424 560 3376
WIRE 656 3424 656 3376
WIRE -656 3440 -656 3424
WIRE 2112 3488 2096 3488
WIRE 2192 3488 2176 3488
WIRE 2304 3488 2272 3488
WIRE 2320 3488 2304 3488
WIRE 2352 3488 2352 3472
WIRE 2464 3520 2464 3472
WIRE 2544 3520 2464 3520
WIRE 2736 3520 2736 3456
WIRE 3120 3520 3120 3456
WIRE 3216 3520 3216 3456
WIRE 3312 3520 3312 3456
WIRE 3408 3520 3408 3456
WIRE 3504 3520 3504 3456
WIRE 2544 3536 2544 3520
WIRE 272 3552 272 3488
WIRE 368 3552 368 3488
WIRE 464 3552 464 3488
WIRE 560 3552 560 3488
WIRE 656 3552 656 3488
WIRE 1392 3552 1392 3536
WIRE 2096 3568 2096 3488
WIRE 2160 3568 2096 3568
WIRE 2304 3568 2304 3488
WIRE 2304 3568 2224 3568
WIRE 2320 3584 2320 3488
WIRE 2352 3584 2352 3568
WIRE 2352 3584 2320 3584
WIRE 1296 3600 1296 3536
WIRE 1120 3648 1104 3648
WIRE 1200 3648 1200 3584
WIRE 1200 3648 1184 3648
WIRE 1536 3648 1488 3648
WIRE 1616 3648 1536 3648
WIRE 1712 3648 1680 3648
WIRE 1808 3648 1712 3648
WIRE 1856 3648 1808 3648
WIRE 2000 3648 1936 3648
WIRE 2048 3648 2000 3648
WIRE 2544 3648 2544 3616
WIRE 2544 3648 2528 3648
WIRE 1392 3664 1392 3616
WIRE 1712 3664 1712 3648
WIRE 1808 3680 1808 3648
WIRE 848 3696 848 3376
WIRE 2096 3696 2096 3664
WIRE 2304 3712 2304 3568
WIRE 1200 3728 1200 3648
WIRE 1296 3728 1296 3680
WIRE 1392 3728 1392 3664
WIRE 1488 3728 1488 3648
WIRE 1712 3760 1712 3744
WIRE 1808 3760 1808 3744
WIRE 848 3792 848 3776
WIRE 1024 3792 848 3792
WIRE 1088 3792 1024 3792
WIRE 1680 3792 1600 3792
WIRE 2064 3792 1680 3792
WIRE 2208 3792 2144 3792
WIRE 2256 3792 2208 3792
WIRE 848 3808 848 3792
WIRE 752 3840 752 3376
WIRE 1024 3888 944 3888
WIRE 1088 3888 1024 3888
WIRE 1888 3888 1600 3888
WIRE 752 3936 752 3920
WIRE 944 3936 944 3888
WIRE 944 3936 752 3936
WIRE 752 3952 752 3936
WIRE 2400 3952 2400 3904
WIRE 944 3984 880 3984
WIRE 1040 3984 1008 3984
WIRE 1088 3984 1040 3984
WIRE 1664 3984 1600 3984
WIRE 1776 3984 1664 3984
WIRE 1888 3984 1888 3888
WIRE 1888 3984 1856 3984
WIRE 2304 3984 2304 3808
WIRE 2304 3984 1888 3984
WIRE 2736 3984 2720 3984
WIRE 2832 3984 2800 3984
WIRE 2304 4016 2304 3984
WIRE 752 4048 752 4032
WIRE 944 4080 880 4080
WIRE 1040 4080 1008 4080
WIRE 1088 4080 1040 4080
WIRE 2128 4080 1600 4080
WIRE 2400 4080 2400 4032
WIRE 2496 4080 2400 4080
WIRE 2720 4080 2720 3984
WIRE 2720 4080 2688 4080
WIRE 2736 4080 2720 4080
WIRE 2832 4080 2832 3984
WIRE 2832 4080 2816 4080
WIRE 3216 4080 3152 4080
WIRE 3312 4080 3280 4080
WIRE 3472 4080 3392 4080
WIRE 3568 4080 3568 3344
WIRE 2128 4112 2128 4080
WIRE 2304 4112 2304 4096
WIRE 2304 4112 2128 4112
WIRE 2304 4128 2304 4112
WIRE 1088 4176 1056 4176
WIRE 1648 4176 1600 4176
WIRE 1760 4176 1648 4176
WIRE 2064 4176 1840 4176
WIRE 2144 4176 2064 4176
WIRE 2352 4176 2224 4176
WIRE 2496 4176 2352 4176
WIRE 3152 4176 3152 4080
WIRE 3152 4176 2688 4176
WIRE 2352 4192 2352 4176
WIRE 3152 4192 3152 4176
WIRE 3184 4192 3152 4192
WIRE 3472 4192 3472 4080
WIRE 3472 4192 3440 4192
WIRE 3568 4192 3568 4160
WIRE 3568 4192 3472 4192
WIRE 3568 4208 3568 4192
WIRE 1088 4272 1056 4272
WIRE 1632 4272 1600 4272
WIRE 2064 4272 2064 4176
WIRE 2064 4272 1632 4272
WIRE 2352 4288 2352 4272
WIRE 2832 4320 2832 4080
WIRE 2832 4320 2704 4320
WIRE 2912 4320 2832 4320
WIRE 3056 4320 3056 4032
WIRE 3056 4320 2992 4320
WIRE 3184 4320 3056 4320
WIRE 3456 4320 3440 4320
WIRE 3568 4320 3568 4288
WIRE 2704 4336 2704 4320
WIRE 2832 4336 2832 4320
WIRE 3056 4336 3056 4320
WIRE 1088 4368 1056 4368
WIRE 3456 4384 3440 4384
WIRE 2704 4416 2704 4400
WIRE 2832 4416 2832 4400
WIRE 3056 4416 3056 4400
WIRE 1152 4464 1152 4432
WIRE 1248 4464 1248 4432
WIRE 1344 4464 1344 4432
WIRE 1152 4576 1152 4544
WIRE 1248 4576 1248 4544
WIRE 1344 4576 1344 4544
WIRE 2560 4656 2464 4656
WIRE 2736 4656 2624 4656
WIRE 2816 4656 2736 4656
WIRE 2928 4656 2896 4656
WIRE 3120 4656 3008 4656
WIRE 3216 4656 3120 4656
WIRE 3312 4656 3216 4656
WIRE 3408 4656 3312 4656
WIRE 3504 4656 3408 4656
WIRE 3568 4656 3504 4656
WIRE 176 4688 176 3376
WIRE 272 4688 176 4688
WIRE 368 4688 272 4688
WIRE 464 4688 368 4688
WIRE 560 4688 464 4688
WIRE 656 4688 560 4688
WIRE 752 4688 656 4688
WIRE 848 4688 752 4688
WIRE 2352 4688 848 4688
WIRE 2352 4704 2352 4688
WIRE 2464 4704 2464 4656
WIRE 2736 4704 2736 4656
WIRE 3120 4704 3120 4656
WIRE 3216 4704 3216 4656
WIRE 3312 4704 3312 4656
WIRE 3408 4704 3408 4656
WIRE 3504 4704 3504 4656
WIRE 272 4736 272 4688
WIRE 368 4736 368 4688
WIRE 464 4736 464 4688
WIRE 560 4736 560 4688
WIRE 656 4736 656 4688
WIRE 2112 4800 2096 4800
WIRE 2192 4800 2176 4800
WIRE 2304 4800 2272 4800
WIRE 2320 4800 2304 4800
WIRE 2464 4800 2464 4784
WIRE 2544 4800 2464 4800
WIRE 2352 4816 2352 4784
WIRE 2544 4832 2544 4800
WIRE 2736 4832 2736 4768
WIRE 3120 4832 3120 4768
WIRE 3216 4832 3216 4768
WIRE 3312 4832 3312 4768
WIRE 3408 4832 3408 4768
WIRE 3504 4832 3504 4768
WIRE 272 4864 272 4800
WIRE 368 4864 368 4800
WIRE 464 4864 464 4800
WIRE 560 4864 560 4800
WIRE 656 4864 656 4800
WIRE 1392 4864 1392 4848
WIRE 2096 4880 2096 4800
WIRE 2160 4880 2096 4880
WIRE 2304 4880 2304 4800
WIRE 2304 4880 2224 4880
WIRE 1296 4912 1296 4848
WIRE 2320 4912 2320 4800
WIRE 2352 4912 2352 4896
WIRE 2352 4912 2320 4912
WIRE 2544 4928 2544 4912
WIRE 1536 4960 1488 4960
WIRE 1616 4960 1536 4960
WIRE 1712 4960 1680 4960
WIRE 1808 4960 1712 4960
WIRE 1856 4960 1808 4960
WIRE 2000 4960 1936 4960
WIRE 2048 4960 2000 4960
WIRE 1120 4976 1104 4976
WIRE 1200 4976 1200 4896
WIRE 1200 4976 1184 4976
WIRE 1392 4976 1392 4928
WIRE 1712 4976 1712 4960
WIRE 1808 4992 1808 4960
WIRE 848 5008 848 4688
WIRE 2096 5008 2096 4976
WIRE 2304 5024 2304 4880
WIRE 1200 5040 1200 4976
WIRE 1296 5040 1296 4992
WIRE 1392 5040 1392 4976
WIRE 1488 5040 1488 4960
WIRE 1712 5072 1712 5056
WIRE 1808 5072 1808 5056
WIRE 848 5104 848 5088
WIRE 1024 5104 848 5104
WIRE 1088 5104 1024 5104
WIRE 1680 5104 1600 5104
WIRE 2064 5104 1680 5104
WIRE 2208 5104 2144 5104
WIRE 2256 5104 2208 5104
WIRE 848 5120 848 5104
WIRE 752 5152 752 4688
WIRE 1024 5200 944 5200
WIRE 1088 5200 1024 5200
WIRE 1888 5200 1600 5200
WIRE 752 5248 752 5232
WIRE 944 5248 944 5200
WIRE 944 5248 752 5248
WIRE 752 5264 752 5248
WIRE 2400 5264 2400 5216
WIRE 944 5296 880 5296
WIRE 1040 5296 1008 5296
WIRE 1088 5296 1040 5296
WIRE 1664 5296 1600 5296
WIRE 1776 5296 1664 5296
WIRE 1888 5296 1888 5200
WIRE 1888 5296 1856 5296
WIRE 2304 5296 2304 5120
WIRE 2304 5296 1888 5296
WIRE 2736 5296 2720 5296
WIRE 2832 5296 2800 5296
WIRE 2304 5328 2304 5296
WIRE 752 5360 752 5344
WIRE 944 5392 880 5392
WIRE 1040 5392 1008 5392
WIRE 1088 5392 1040 5392
WIRE 2128 5392 1600 5392
WIRE 2400 5392 2400 5344
WIRE 2496 5392 2400 5392
WIRE 2720 5392 2720 5296
WIRE 2720 5392 2688 5392
WIRE 2736 5392 2720 5392
WIRE 2832 5392 2832 5296
WIRE 2832 5392 2816 5392
WIRE 3216 5392 3152 5392
WIRE 3312 5392 3280 5392
WIRE 3472 5392 3392 5392
WIRE 3568 5392 3568 4656
WIRE 2128 5424 2128 5392
WIRE 2304 5424 2304 5408
WIRE 2304 5424 2128 5424
WIRE 2304 5440 2304 5424
WIRE 1088 5488 1056 5488
WIRE 1648 5488 1600 5488
WIRE 1760 5488 1648 5488
WIRE 2064 5488 1840 5488
WIRE 2144 5488 2064 5488
WIRE 2352 5488 2224 5488
WIRE 2496 5488 2352 5488
WIRE 3152 5488 3152 5392
WIRE 3152 5488 2688 5488
WIRE 2352 5504 2352 5488
WIRE 3152 5504 3152 5488
WIRE 3184 5504 3152 5504
WIRE 3472 5504 3472 5392
WIRE 3472 5504 3440 5504
WIRE 3568 5504 3568 5472
WIRE 3568 5504 3472 5504
WIRE 3568 5520 3568 5504
WIRE 1088 5584 1056 5584
WIRE 1632 5584 1600 5584
WIRE 2064 5584 2064 5488
WIRE 2064 5584 1632 5584
WIRE 2352 5600 2352 5584
WIRE 2832 5632 2832 5392
WIRE 2832 5632 2704 5632
WIRE 2912 5632 2832 5632
WIRE 3056 5632 3056 5344
WIRE 3056 5632 2992 5632
WIRE 3184 5632 3056 5632
WIRE 3456 5632 3440 5632
WIRE 3568 5632 3568 5600
WIRE 2704 5648 2704 5632
WIRE 2832 5648 2832 5632
WIRE 3056 5648 3056 5632
WIRE 1088 5680 1056 5680
WIRE 3456 5696 3440 5696
WIRE 2704 5728 2704 5712
WIRE 2832 5728 2832 5712
WIRE 3056 5728 3056 5712
WIRE 1152 5776 1152 5744
WIRE 1248 5776 1248 5744
WIRE 1344 5776 1344 5744
WIRE 1152 5888 1152 5856
WIRE 1248 5888 1248 5856
WIRE 1344 5888 1344 5856
FLAG -32 -352 0
FLAG -32 -512 IN
FLAG 1056 384 0
FLAG 1056 480 0
FLAG 880 192 0
FLAG 880 96 0
FLAG 1296 -352 0
FLAG 1392 -352 0
FLAG 1344 688 0
FLAG 2304 240 0
FLAG 3808 -368 0
FLAG 1248 688 0
FLAG 1152 688 0
FLAG 3808 -544 OUT
FLAG 2000 -240 MOS1_1
FLAG 2208 -96 MOS2_1
FLAG 1632 384 FB_1
FLAG 1728 -128 0
FLAG 2096 -192 0
FLAG 1040 96 SS1_1
FLAG 1040 192 SS2_1
FLAG 1392 -224 INTVcc_1
FLAG 1024 -96 UVLO_1
FLAG 1024 0 OVLO_1
FLAG 1664 96 Isense_1
FLAG 1648 288 COMP_1
FLAG 3472 304 Ref_1
FLAG 1536 -240 AOUT_1
FLAG 3056 144 12V_ph1
IOPIN 3056 144 In
FLAG 1680 -96 OUT_pin_1
FLAG 2352 400 0
FLAG 752 160 0
FLAG 848 0 0
FLAG 1056 1680 0
FLAG 1056 1776 0
FLAG 880 1488 0
FLAG 880 1392 0
FLAG 1296 944 0
FLAG 1392 944 0
FLAG 2304 1536 0
FLAG 2000 1056 MOS1_2
FLAG 2208 1200 MOS2_2
FLAG 1632 1680 FB_2
FLAG 1728 1168 0
FLAG 2096 1104 0
FLAG 1040 1392 SS1_2
FLAG 1040 1488 SS2_2
FLAG 1392 1072 INTVcc_2
FLAG 1024 1200 UVLO_2
FLAG 1024 1296 OVLO_2
FLAG 1664 1392 Isense_2
FLAG 1648 1584 COMP_2
FLAG 3472 1600 Ref_2
FLAG 1536 1056 AOUT_2
FLAG 3056 1440 12V_ph2
IOPIN 3056 1440 In
FLAG 1680 1200 OUT_pin_2
FLAG 2352 1696 0
FLAG 752 1456 0
FLAG 848 1296 0
FLAG 1056 2976 0
FLAG 1056 3072 0
FLAG 880 2784 0
FLAG 880 2688 0
FLAG 1296 2240 0
FLAG 1392 2240 0
FLAG 1344 3280 0
FLAG 2304 2832 0
FLAG 1248 3280 0
FLAG 1152 3280 0
FLAG 2000 2352 MOS1_3
FLAG 2208 2496 MOS2_3
FLAG 1632 2976 FB_3
FLAG 1712 2464 0
FLAG 2096 2400 0
FLAG 1040 2688 SS1_3
FLAG 1040 2784 SS2_3
FLAG 1392 2368 INTVcc_3
FLAG 1024 2496 UVLO_3
FLAG 1024 2592 OVLO_3
FLAG 1664 2688 Isense_3
FLAG 1648 2880 COMP_3
FLAG 3472 2896 Ref_3
FLAG 1536 2352 AOUT_3
FLAG 3056 2736 12V_ph3
IOPIN 3056 2736 In
FLAG 1680 2496 OUT_pin_3
FLAG 2352 2992 0
FLAG 752 2752 0
FLAG 848 2592 0
FLAG 1152 1984 0
FLAG 1248 1984 0
FLAG 1344 1984 0
FLAG -320 896 ph2+
IOPIN -320 896 Out
FLAG 3568 752 ph2+
IOPIN 3568 752 In
FLAG 3568 2048 ph3+
IOPIN 3568 2048 In
FLAG 3568 432 ph2+
IOPIN 3568 432 Out
FLAG 3456 432 ph2+
IOPIN 3456 432 Out
FLAG 3456 496 ph2+
IOPIN 3456 496 Out
FLAG 3056 528 ph2+
IOPIN 3056 528 Out
FLAG 2832 528 ph2+
IOPIN 2832 528 Out
FLAG 2704 528 ph2+
IOPIN 2704 528 Out
FLAG 2736 -368 ph2+
IOPIN 2736 -368 Out
FLAG 2512 -240 ph2+
IOPIN 2512 -240 Out
FLAG 3568 1728 ph3+
IOPIN 3568 1728 Out
FLAG 3456 1728 ph3+
IOPIN 3456 1728 Out
FLAG 3456 1792 ph3+
IOPIN 3456 1792 Out
FLAG 3056 1824 ph3+
IOPIN 3056 1824 Out
FLAG 2832 1824 ph3+
IOPIN 2832 1824 Out
FLAG 2704 1824 ph3+
IOPIN 2704 1824 Out
FLAG 2736 928 ph3+
IOPIN 2736 928 Out
FLAG 2512 1056 ph3+
IOPIN 2512 1056 Out
FLAG 2400 16 12V_main
IOPIN 2400 16 In
FLAG 2400 1312 12V_main
IOPIN 2400 1312 In
FLAG 2400 2608 12V_main
IOPIN 2400 2608 In
FLAG 2400 1552 0
FLAG 2400 256 0
FLAG 2400 2848 0
FLAG 1808 -128 0
FLAG 1808 1168 0
FLAG 1808 2464 0
FLAG 1056 4272 0
FLAG 1056 4368 0
FLAG 880 4080 0
FLAG 880 3984 0
FLAG 1296 3536 0
FLAG 1392 3536 0
FLAG 1344 4576 0
FLAG 2304 4128 0
FLAG 1248 4576 0
FLAG 1152 4576 0
FLAG 2000 3648 MOS1_4
FLAG 2208 3792 MOS2_4
FLAG 1632 4272 FB_4
FLAG 1712 3760 0
FLAG 2096 3696 0
FLAG 1040 3984 SS1_4
FLAG 1040 4080 SS2_4
FLAG 1392 3664 INTVcc_4
FLAG 1024 3792 UVLO_4
FLAG 1024 3888 OVLO_4
FLAG 1664 3984 Isense_4
FLAG 1648 4176 COMP_4
FLAG 3472 4192 Ref_4
FLAG 1536 3648 AOUT_4
FLAG 3056 4032 12V_ph4
IOPIN 3056 4032 In
FLAG 1680 3792 OUT_pin_4
FLAG 2352 4288 0
FLAG 752 4048 0
FLAG 848 3888 0
FLAG 3568 3344 ph4+
IOPIN 3568 3344 In
FLAG 2400 3904 12V_main
IOPIN 2400 3904 In
FLAG 2400 4144 0
FLAG 1808 3760 0
FLAG 1056 5584 0
FLAG 1056 5680 0
FLAG 880 5392 0
FLAG 880 5296 0
FLAG 1296 4848 0
FLAG 1392 4848 0
FLAG 1344 5888 0
FLAG 2304 5440 0
FLAG 1248 5888 0
FLAG 1152 5888 0
FLAG 3568 5632 0
FLAG 2000 4960 MOS1_5
FLAG 2208 5104 MOS2_5
FLAG 1632 5584 FB_5
FLAG 1712 5072 0
FLAG 2096 5008 0
FLAG 1040 5296 SS1_5
FLAG 1040 5392 SS2_5
FLAG 1392 4976 INTVcc_5
FLAG 1024 5104 UVLO_5
FLAG 1024 5200 OVLO_5
FLAG 1664 5296 Isense_5
FLAG 1648 5488 COMP_5
FLAG 3056 5728 0
FLAG 2832 5728 0
FLAG 2704 5728 0
FLAG 3456 5632 0
FLAG 3456 5696 0
FLAG 3472 5504 Ref_5
FLAG 1536 4960 AOUT_5
FLAG 3056 5344 12V_main
IOPIN 3056 5344 In
FLAG 1680 5104 OUT_pin_5
FLAG 2352 5600 0
FLAG 2736 4832 0
FLAG 752 5360 0
FLAG 848 5200 0
FLAG 3568 4656 ph5+
IOPIN 3568 4656 In
FLAG 2400 5216 12V_main
IOPIN 2400 5216 In
FLAG 2400 5456 0
FLAG 1808 5072 0
FLAG 3568 3024 ph4+
IOPIN 3568 3024 Out
FLAG 3056 3120 ph4+
IOPIN 3056 3120 Out
FLAG 3456 3088 ph4+
IOPIN 3456 3088 Out
FLAG 3456 3024 ph4+
IOPIN 3456 3024 Out
FLAG 2832 3120 ph4+
IOPIN 2832 3120 Out
FLAG 2704 3120 ph4+
IOPIN 2704 3120 Out
FLAG 2704 4416 ph5+
IOPIN 2704 4416 Out
FLAG 2832 4416 ph5+
IOPIN 2832 4416 Out
FLAG 3056 4416 ph5+
IOPIN 3056 4416 Out
FLAG 3456 4384 ph5+
IOPIN 3456 4384 Out
FLAG 3456 4320 ph5+
IOPIN 3456 4320 Out
FLAG 3568 4320 ph5+
IOPIN 3568 4320 Out
FLAG 2736 2224 ph4+
IOPIN 2736 2224 Out
FLAG 2528 2352 ph4+
IOPIN 2528 2352 Out
FLAG 2736 3520 ph5+
IOPIN 2736 3520 Out
FLAG 2528 3648 ph5+
IOPIN 2528 3648 Out
FLAG 3232 -368 ph2+
IOPIN 3232 -368 Out
FLAG 3328 -368 ph2+
IOPIN 3328 -368 Out
FLAG 3424 -368 ph2+
IOPIN 3424 -368 Out
FLAG 3520 -368 ph2+
IOPIN 3520 -368 Out
FLAG 3216 928 ph3+
IOPIN 3216 928 Out
FLAG 3312 928 ph3+
IOPIN 3312 928 Out
FLAG 3408 928 ph3+
IOPIN 3408 928 Out
FLAG 3504 928 ph3+
IOPIN 3504 928 Out
FLAG 3200 2224 ph4+
IOPIN 3200 2224 Out
FLAG 3392 2224 ph4+
IOPIN 3392 2224 Out
FLAG 3296 2224 ph4+
IOPIN 3296 2224 Out
FLAG 3488 2224 ph4+
IOPIN 3488 2224 Out
FLAG 3216 3520 ph5+
IOPIN 3216 3520 Out
FLAG 3312 3520 ph5+
IOPIN 3312 3520 Out
FLAG 3408 3520 ph5+
IOPIN 3408 3520 Out
FLAG 3504 3520 ph5+
IOPIN 3504 3520 Out
FLAG 3216 4832 0
FLAG 3312 4832 0
FLAG 3408 4832 0
FLAG 3504 4832 0
FLAG -448 368 12V_main
IOPIN -448 368 Out
FLAG 3136 -368 ph2+
IOPIN 3136 -368 Out
FLAG 3120 4832 0
FLAG 3120 3520 ph5+
IOPIN 3120 3520 Out
FLAG 3104 2224 ph4+
IOPIN 3104 2224 Out
FLAG 3120 928 ph3+
IOPIN 3120 928 Out
FLAG 2544 4928 0
FLAG -448 528 0