Version 4.1
SHEET 1 5072 4704
WIRE 1616 -304 1616 -336
WIRE 1616 -208 1616 -240
WIRE 1392 -176 608 -176
WIRE 1392 -160 1392 -176
WIRE 1616 -128 1616 -144
WIRE 1616 -128 1488 -128
WIRE 1728 -128 1616 -128
WIRE 1904 -128 1792 -128
WIRE 2016 -128 1968 -128
WIRE 2064 -128 2016 -128
WIRE 2208 -128 2144 -128
WIRE 2256 -128 2208 -128
WIRE 2352 -128 2256 -128
WIRE 2448 -128 2352 -128
WIRE 2544 -128 2448 -128
WIRE 2768 -128 2544 -128
WIRE 3072 -128 2768 -128
WIRE 1488 -112 1488 -128
WIRE 2256 -112 2256 -128
WIRE 2352 -112 2352 -128
WIRE 2448 -112 2448 -128
WIRE 2544 -112 2544 -128
WIRE 3072 -96 3072 -128
WIRE 3216 -80 3120 -80
WIRE -1072 -64 -1312 -64
WIRE -928 -64 -1072 -64
WIRE -864 -64 -928 -64
WIRE -784 -64 -864 -64
WIRE -704 -64 -784 -64
WIRE -528 -64 -704 -64
WIRE 1392 -64 1392 -80
WIRE 1392 -64 -528 -64
WIRE -1312 -48 -1312 -64
WIRE 1392 -48 1392 -64
WIRE -928 -32 -928 -64
WIRE -864 -32 -864 -64
WIRE -784 -32 -784 -64
WIRE -704 -32 -704 -64
WIRE 3152 -32 3120 -32
WIRE 1488 -16 1488 -32
WIRE 1616 -16 1488 -16
WIRE 1728 -16 1616 -16
WIRE 1904 -16 1792 -16
WIRE 2016 -16 2016 -128
WIRE 2016 -16 1968 -16
WIRE 2256 -16 2256 -48
WIRE 2352 -16 2352 -48
WIRE 2448 -16 2448 -48
WIRE 2544 -16 2544 -48
WIRE 1616 0 1616 -16
WIRE 3072 0 3072 -16
WIRE 3152 16 3152 -32
WIRE 3216 16 3216 0
WIRE 3216 16 3152 16
WIRE -1312 48 -1312 32
WIRE -928 48 -928 32
WIRE -864 48 -864 32
WIRE -784 48 -784 32
WIRE -704 48 -704 32
WIRE 1392 48 1392 32
WIRE 1392 48 1008 48
WIRE 3216 48 3216 16
WIRE 640 96 544 96
WIRE 720 96 640 96
WIRE 1040 96 944 96
WIRE 1136 96 1040 96
WIRE 1616 96 1616 64
WIRE 3072 112 3072 80
WIRE 608 128 608 -176
WIRE 704 128 608 128
WIRE 784 128 704 128
WIRE 1008 128 1008 48
WIRE 1104 128 1008 128
WIRE 1200 128 1104 128
WIRE 1616 176 1616 160
WIRE 544 208 544 96
WIRE 544 208 400 208
WIRE 560 208 544 208
WIRE 640 208 640 96
WIRE 656 208 640 208
WIRE 720 208 720 96
WIRE 736 208 720 208
WIRE 944 208 944 96
WIRE 944 208 880 208
WIRE 960 208 944 208
WIRE 1040 208 1040 96
WIRE 1056 208 1040 208
WIRE 1136 208 1136 96
WIRE 1152 208 1136 208
WIRE 704 224 608 224
WIRE 784 224 704 224
WIRE 1104 224 1008 224
WIRE 1200 224 1104 224
WIRE 4928 400 4928 288
WIRE 4816 528 4704 528
WIRE 4928 528 4928 480
WIRE 4928 528 4816 528
WIRE 4704 560 4704 528
WIRE -144 640 -256 640
WIRE -64 640 -144 640
WIRE 16 640 -64 640
WIRE -528 656 -528 -64
WIRE -144 656 -144 640
WIRE -64 656 -64 640
WIRE 16 656 16 640
WIRE -256 672 -256 640
WIRE 4704 672 4704 640
WIRE -144 736 -144 720
WIRE -64 736 -64 720
WIRE 16 752 16 736
WIRE -256 768 -256 752
WIRE -528 800 -528 736
WIRE -400 800 -528 800
WIRE -160 800 -400 800
WIRE 288 800 176 800
WIRE 400 800 400 208
WIRE 400 800 368 800
WIRE -400 816 -400 800
WIRE -176 816 -320 816
WIRE -528 848 -528 800
WIRE -256 864 -288 864
WIRE -176 864 -176 816
WIRE -160 864 -176 864
WIRE 416 864 176 864
WIRE 880 864 880 208
WIRE 880 864 496 864
WIRE -400 912 -400 880
WIRE -320 928 -320 816
WIRE -320 928 -368 928
WIRE -288 928 -288 864
WIRE -160 928 -288 928
WIRE 240 928 176 928
WIRE 608 928 608 224
WIRE 608 928 320 928
WIRE 1008 928 1008 224
WIRE 1008 928 608 928
WIRE 1024 928 1008 928
WIRE 1120 928 1104 928
WIRE -368 944 -368 928
WIRE -528 960 -528 928
WIRE 2208 960 2208 -128
WIRE -256 992 -272 992
WIRE -160 992 -176 992
WIRE 336 992 176 992
WIRE 464 992 416 992
WIRE -368 1024 -368 1008
WIRE -160 1056 -224 1056
WIRE 464 1056 176 1056
WIRE 2208 1056 2208 1040
WIRE 2208 1056 464 1056
WIRE 2336 1056 2208 1056
WIRE 3072 1056 2416 1056
WIRE 2208 1072 2208 1056
WIRE -80 1120 -80 1104
WIRE -80 1120 -144 1120
WIRE 16 1120 16 1104
WIRE 112 1120 112 1104
WIRE -224 1136 -224 1056
WIRE 1616 1152 1616 1120
WIRE 2208 1168 2208 1152
WIRE -144 1200 -144 1184
WIRE -224 1216 -224 1200
WIRE 1616 1248 1616 1216
WIRE 1392 1280 608 1280
WIRE 1392 1296 1392 1280
WIRE 1616 1328 1616 1312
WIRE 1616 1328 1488 1328
WIRE 1728 1328 1616 1328
WIRE 1904 1328 1792 1328
WIRE 2016 1328 1968 1328
WIRE 2064 1328 2016 1328
WIRE 2208 1328 2144 1328
WIRE 2256 1328 2208 1328
WIRE 2352 1328 2256 1328
WIRE 2448 1328 2352 1328
WIRE 2544 1328 2448 1328
WIRE 2768 1328 2768 -128
WIRE 2768 1328 2544 1328
WIRE 1488 1344 1488 1328
WIRE 2256 1344 2256 1328
WIRE 2352 1344 2352 1328
WIRE 2448 1344 2448 1328
WIRE 2544 1344 2544 1328
WIRE -1072 1392 -1072 -64
WIRE -928 1392 -1072 1392
WIRE -864 1392 -928 1392
WIRE -784 1392 -864 1392
WIRE -704 1392 -784 1392
WIRE -528 1392 -704 1392
WIRE 1392 1392 1392 1376
WIRE 1392 1392 -528 1392
WIRE 1392 1408 1392 1392
WIRE -928 1424 -928 1392
WIRE -864 1424 -864 1392
WIRE -784 1424 -784 1392
WIRE -704 1424 -704 1392
WIRE 1488 1440 1488 1424
WIRE 1616 1440 1488 1440
WIRE 1728 1440 1616 1440
WIRE 1904 1440 1792 1440
WIRE 2016 1440 2016 1328
WIRE 2016 1440 1968 1440
WIRE 2256 1440 2256 1408
WIRE 2352 1440 2352 1408
WIRE 2448 1440 2448 1408
WIRE 2544 1440 2544 1408
WIRE 1616 1456 1616 1440
WIRE -928 1504 -928 1488
WIRE -864 1504 -864 1488
WIRE -784 1504 -784 1488
WIRE -704 1504 -704 1488
WIRE 1392 1504 1392 1488
WIRE 1392 1504 1008 1504
WIRE 640 1552 544 1552
WIRE 720 1552 640 1552
WIRE 1040 1552 944 1552
WIRE 1136 1552 1040 1552
WIRE 1616 1552 1616 1520
WIRE 608 1584 608 1280
WIRE 704 1584 608 1584
WIRE 784 1584 704 1584
WIRE 1008 1584 1008 1504
WIRE 1104 1584 1008 1584
WIRE 1200 1584 1104 1584
WIRE 1616 1632 1616 1616
WIRE 544 1664 544 1552
WIRE 544 1664 400 1664
WIRE 560 1664 544 1664
WIRE 640 1664 640 1552
WIRE 656 1664 640 1664
WIRE 720 1664 720 1552
WIRE 736 1664 720 1664
WIRE 944 1664 944 1552
WIRE 944 1664 880 1664
WIRE 960 1664 944 1664
WIRE 1040 1664 1040 1552
WIRE 1056 1664 1040 1664
WIRE 1136 1664 1136 1552
WIRE 1152 1664 1136 1664
WIRE 704 1680 608 1680
WIRE 784 1680 704 1680
WIRE 1104 1680 1008 1680
WIRE 1200 1680 1104 1680
WIRE -144 2096 -256 2096
WIRE -64 2096 -144 2096
WIRE 16 2096 -64 2096
WIRE -528 2112 -528 1392
WIRE -144 2112 -144 2096
WIRE -64 2112 -64 2096
WIRE 16 2112 16 2096
WIRE -256 2128 -256 2096
WIRE -144 2192 -144 2176
WIRE -64 2192 -64 2176
WIRE 16 2208 16 2192
WIRE -256 2224 -256 2208
WIRE -528 2256 -528 2192
WIRE -400 2256 -528 2256
WIRE -160 2256 -400 2256
WIRE 288 2256 176 2256
WIRE 400 2256 400 1664
WIRE 400 2256 368 2256
WIRE -400 2272 -400 2256
WIRE -176 2272 -320 2272
WIRE -528 2304 -528 2256
WIRE -256 2320 -288 2320
WIRE -176 2320 -176 2272
WIRE -160 2320 -176 2320
WIRE 416 2320 176 2320
WIRE 880 2320 880 1664
WIRE 880 2320 496 2320
WIRE -400 2368 -400 2336
WIRE -320 2384 -320 2272
WIRE -320 2384 -368 2384
WIRE -288 2384 -288 2320
WIRE -160 2384 -288 2384
WIRE 240 2384 176 2384
WIRE 608 2384 608 1680
WIRE 608 2384 320 2384
WIRE 1008 2384 1008 1680
WIRE 1008 2384 608 2384
WIRE 1024 2384 1008 2384
WIRE 1120 2384 1104 2384
WIRE -368 2400 -368 2384
WIRE -528 2416 -528 2384
WIRE 2208 2416 2208 1328
WIRE -256 2448 -272 2448
WIRE -160 2448 -176 2448
WIRE 336 2448 176 2448
WIRE 464 2448 416 2448
WIRE -368 2480 -368 2464
WIRE -160 2512 -224 2512
WIRE 464 2512 176 2512
WIRE 2208 2512 2208 2496
WIRE 2208 2512 464 2512
WIRE 2336 2512 2208 2512
WIRE 3072 2512 3072 1056
WIRE 3072 2512 2416 2512
WIRE 3376 2512 3072 2512
WIRE 2208 2528 2208 2512
WIRE -80 2576 -80 2560
WIRE -80 2576 -144 2576
WIRE 16 2576 16 2560
WIRE 112 2576 112 2560
WIRE 3376 2576 3376 2512
WIRE -224 2592 -224 2512
WIRE 1616 2608 1616 2576
WIRE 2208 2624 2208 2608
WIRE -144 2656 -144 2640
WIRE -224 2672 -224 2656
WIRE 3376 2688 3376 2656
WIRE 1616 2704 1616 2672
WIRE 1392 2736 608 2736
WIRE 1392 2752 1392 2736
WIRE 1616 2784 1616 2768
WIRE 1616 2784 1488 2784
WIRE 1728 2784 1616 2784
WIRE 1904 2784 1792 2784
WIRE 2016 2784 1968 2784
WIRE 2064 2784 2016 2784
WIRE 2208 2784 2144 2784
WIRE 2256 2784 2208 2784
WIRE 2352 2784 2256 2784
WIRE 2448 2784 2352 2784
WIRE 2544 2784 2448 2784
WIRE 2768 2784 2768 1328
WIRE 2768 2784 2544 2784
WIRE 1488 2800 1488 2784
WIRE 2256 2800 2256 2784
WIRE 2352 2800 2352 2784
WIRE 2448 2800 2448 2784
WIRE 2544 2800 2544 2784
WIRE -1072 2848 -1072 1392
WIRE -928 2848 -1072 2848
WIRE -864 2848 -928 2848
WIRE -784 2848 -864 2848
WIRE -704 2848 -784 2848
WIRE -528 2848 -704 2848
WIRE 1392 2848 1392 2832
WIRE 1392 2848 -528 2848
WIRE 1392 2864 1392 2848
WIRE -928 2880 -928 2848
WIRE -864 2880 -864 2848
WIRE -784 2880 -784 2848
WIRE -704 2880 -704 2848
WIRE 1488 2896 1488 2880
WIRE 1616 2896 1488 2896
WIRE 1728 2896 1616 2896
WIRE 1904 2896 1792 2896
WIRE 2016 2896 2016 2784
WIRE 2016 2896 1968 2896
WIRE 2256 2896 2256 2864
WIRE 2352 2896 2352 2864
WIRE 2448 2896 2448 2864
WIRE 2544 2896 2544 2864
WIRE 1616 2912 1616 2896
WIRE -928 2960 -928 2944
WIRE -864 2960 -864 2944
WIRE -784 2960 -784 2944
WIRE -704 2960 -704 2944
WIRE 1392 2960 1392 2944
WIRE 1392 2960 1008 2960
WIRE 640 3008 544 3008
WIRE 720 3008 640 3008
WIRE 1040 3008 944 3008
WIRE 1136 3008 1040 3008
WIRE 1616 3008 1616 2976
WIRE 608 3040 608 2736
WIRE 704 3040 608 3040
WIRE 784 3040 704 3040
WIRE 1008 3040 1008 2960
WIRE 1104 3040 1008 3040
WIRE 1200 3040 1104 3040
WIRE 1616 3088 1616 3072
WIRE 544 3120 544 3008
WIRE 544 3120 400 3120
WIRE 560 3120 544 3120
WIRE 640 3120 640 3008
WIRE 656 3120 640 3120
WIRE 720 3120 720 3008
WIRE 736 3120 720 3120
WIRE 944 3120 944 3008
WIRE 944 3120 880 3120
WIRE 960 3120 944 3120
WIRE 1040 3120 1040 3008
WIRE 1056 3120 1040 3120
WIRE 1136 3120 1136 3008
WIRE 1152 3120 1136 3120
WIRE 704 3136 608 3136
WIRE 784 3136 704 3136
WIRE 1104 3136 1008 3136
WIRE 1200 3136 1104 3136
WIRE -144 3552 -256 3552
WIRE -64 3552 -144 3552
WIRE 16 3552 -64 3552
WIRE -528 3568 -528 2848
WIRE -144 3568 -144 3552
WIRE -64 3568 -64 3552
WIRE 16 3568 16 3552
WIRE -256 3584 -256 3552
WIRE -144 3648 -144 3632
WIRE -64 3648 -64 3632
WIRE 16 3664 16 3648
WIRE -256 3680 -256 3664
WIRE -528 3712 -528 3648
WIRE -400 3712 -528 3712
WIRE -160 3712 -400 3712
WIRE 288 3712 176 3712
WIRE 400 3712 400 3120
WIRE 400 3712 368 3712
WIRE -400 3728 -400 3712
WIRE -176 3728 -320 3728
WIRE -528 3760 -528 3712
WIRE -256 3776 -288 3776
WIRE -176 3776 -176 3728
WIRE -160 3776 -176 3776
WIRE 416 3776 176 3776
WIRE 880 3776 880 3120
WIRE 880 3776 496 3776
WIRE -400 3824 -400 3792
WIRE -320 3840 -320 3728
WIRE -320 3840 -368 3840
WIRE -288 3840 -288 3776
WIRE -160 3840 -288 3840
WIRE 240 3840 176 3840
WIRE 608 3840 608 3136
WIRE 608 3840 320 3840
WIRE 1008 3840 1008 3136
WIRE 1008 3840 608 3840
WIRE 1024 3840 1008 3840
WIRE 1120 3840 1104 3840
WIRE -368 3856 -368 3840
WIRE -528 3872 -528 3840
WIRE 2208 3872 2208 2784
WIRE -256 3904 -272 3904
WIRE -160 3904 -176 3904
WIRE 336 3904 176 3904
WIRE 464 3904 416 3904
WIRE -368 3936 -368 3920
WIRE -160 3968 -224 3968
WIRE 464 3968 176 3968
WIRE 2208 3968 2208 3952
WIRE 2208 3968 464 3968
WIRE 2336 3968 2208 3968
WIRE 3072 3968 3072 2512
WIRE 3072 3968 2416 3968
WIRE 2208 3984 2208 3968
WIRE -80 4032 -80 4016
WIRE -80 4032 -144 4032
WIRE 16 4032 16 4016
WIRE 112 4032 112 4016
WIRE -224 4048 -224 3968
WIRE 2208 4080 2208 4064
WIRE -144 4112 -144 4096
WIRE -224 4128 -224 4112
FLAG 1120 928 0
FLAG -80 1184 0
FLAG 16 1120 0
FLAG 112 1120 0
FLAG -272 992 0
FLAG -224 1216 0
FLAG -1312 48 0
FLAG 2208 1168 0
FLAG 2256 -16 0
FLAG -1312 -64 IN
FLAG -400 912 0
FLAG -704 48 0
FLAG -784 48 0
FLAG 3072 112 0
FLAG 3216 48 COM
FLAG 2352 -16 0
FLAG 2448 -16 0
FLAG 2544 -16 0
FLAG -864 48 0
FLAG -928 48 0
FLAG -368 1024 0
FLAG -528 960 0
FLAG -256 768 0
FLAG -64 736 0
FLAG -144 736 0
FLAG 4816 528 VR
FLAG 4928 288 0
FLAG 4704 672 0
FLAG -144 1200 0
FLAG 1616 176 0
FLAG 1616 -336 0
FLAG 1120 2384 0
FLAG -80 2640 0
FLAG 16 2576 0
FLAG 112 2576 0
FLAG -272 2448 0
FLAG -224 2672 0
FLAG 2208 2624 0
FLAG 2256 1440 0
FLAG -400 2368 0
FLAG -704 1504 0
FLAG -784 1504 0
FLAG 2352 1440 0
FLAG 2448 1440 0
FLAG 2544 1440 0
FLAG -864 1504 0
FLAG -928 1504 0
FLAG -368 2480 0
FLAG -528 2416 0
FLAG -256 2224 0
FLAG -64 2192 0
FLAG -144 2192 0
FLAG -144 2656 0
FLAG 1616 1632 0
FLAG 1616 1120 0
FLAG 3376 2688 0
FLAG 1120 3840 0
FLAG -80 4096 0
FLAG 16 4032 0
FLAG 112 4032 0
FLAG -272 3904 0
FLAG -224 4128 0
FLAG 2208 4080 0
FLAG 2256 2896 0
FLAG -400 3824 0
FLAG -704 2960 0
FLAG -784 2960 0
FLAG 2352 2896 0
FLAG 2448 2896 0
FLAG 2544 2896 0
FLAG -864 2960 0
FLAG -928 2960 0
FLAG -368 3936 0
FLAG -528 3872 0
FLAG -256 3680 0
FLAG -64 3648 0
FLAG -144 3648 0
FLAG -144 4112 0
FLAG 1616 3088 0
FLAG 1616 2576 0
SYMBOL LTC3721-1 16 928 R0
SYMATTR InstName U1
SYMBOL res 1008 944 R270
WINDOW 0 32 56 VTop 2
WINDOW 3 0 56 VBottom 2
SYMATTR InstName R1
SYMATTR Value 1m
SYMBOL res 336 912 R90
WINDOW 0 0 56 VBottom 2
WINDOW 3 32 56 VTop 2
SYMATTR InstName R2
SYMATTR Value 100
SYMBOL cap -96 1120 R0
WINDOW 3 30 52 Left 2
SYMATTR Value 330p
SYMATTR InstName C1
SYMBOL res -160 848 R90
WINDOW 0 0 56 VBottom 2
WINDOW 3 32 56 VTop 2
SYMATTR InstName R3
SYMATTR Value 100K
SYMBOL res -160 976 R90
WINDOW 0 0 56 VBottom 2
WINDOW 3 32 56 VTop 2
SYMATTR InstName R4
SYMATTR Value 100K
SYMBOL cap -240 1136 R0
WINDOW 3 30 52 Left 2
SYMATTR Value .1Ą
SYMATTR InstName C2
SYMBOL voltage -1312 -64 R0
WINDOW 3 24 92 Left 2
SYMATTR Value 50
SYMATTR InstName V1
SYMATTR SpiceLine Rser=0
SYMBOL ind2 1408 -64 R180
WINDOW 0 36 80 Left 2
WINDOW 3 36 40 Left 2
SYMATTR InstName L1
SYMATTR Value 9.25Ą
SYMATTR Type ind
SYMATTR SpiceLine Rser=0.15m
SYMBOL ind2 1408 48 R180
WINDOW 0 36 80 Left 2
WINDOW 3 36 40 Left 2
SYMATTR InstName L2
SYMATTR Value 9.25Ą
SYMATTR Type ind
SYMATTR SpiceLine Rser=0.15m
SYMBOL ind2 1504 -128 M0
WINDOW 0 -4 38 Right 2
WINDOW 3 -4 71 Right 2
SYMATTR InstName L3
SYMATTR Value 1332Ą
SYMATTR Type ind
SYMATTR SpiceLine Rser=25m
SYMBOL ind 2048 -112 R270
WINDOW 0 32 56 VTop 2
WINDOW 3 5 56 VBottom 2
SYMATTR InstName L4
SYMATTR Value 110Ą
SYMBOL res 2192 944 R0
SYMATTR InstName R5
SYMATTR Value 169k
SYMBOL res 2192 1056 R0
SYMATTR InstName R6
SYMATTR Value 500
SYMBOL cap 2240 -112 R0
SYMATTR InstName C4
SYMATTR Value 220Ą
SYMBOL cap -416 816 R0
SYMATTR InstName C6
SYMATTR Value .001Ą
SYMBOL nmos 560 128 R0
WINDOW 0 52 26 Left 2
WINDOW 3 51 55 Invisible 2
SYMATTR InstName Q3
SYMATTR Value IPP200N25N3
SYMBOL nmos 960 128 R0
WINDOW 0 52 26 Left 2
WINDOW 3 51 55 Invisible 2
SYMATTR InstName Q1
SYMATTR Value IPP200N25N3
SYMBOL Cap -800 -32 R0
SYMATTR InstName C5
SYMATTR Value 220Ą
SYMBOL Cap -720 -32 R0
SYMATTR InstName C7
SYMATTR Value 220Ą
SYMBOL Res 3056 -16 R0
SYMATTR InstName R8
SYMATTR Value 50
SYMBOL Res 2320 1072 R270
WINDOW 0 32 56 VTop 2
WINDOW 3 0 56 VBottom 2
SYMATTR InstName R9
SYMATTR Value 1.2k
SYMBOL diode 1904 -144 M90
WINDOW 0 0 32 VBottom 2
WINDOW 3 32 32 VTop 2
SYMATTR InstName D5
SYMATTR Value VS-E5PX6012
SYMBOL diode 1904 -32 M90
WINDOW 0 0 32 VBottom 2
WINDOW 3 32 32 VTop 2
SYMATTR InstName D3
SYMATTR Value VS-E5PX6012
SYMBOL diode 1600 64 M180
WINDOW 0 24 64 Left 2
WINDOW 3 24 0 Left 2
SYMATTR InstName D1
SYMATTR Value VS-E5PX6012
SYMBOL diode 1632 -208 M0
SYMATTR InstName D2
SYMATTR Value VS-E5PX6012
SYMBOL nmos 1056 128 R0
WINDOW 0 52 26 Left 2
WINDOW 3 51 55 Invisible 2
SYMATTR InstName Q2
SYMATTR Value IPP200N25N3
SYMBOL nmos 656 128 R0
WINDOW 0 52 26 Left 2
WINDOW 3 51 55 Invisible 2
SYMATTR InstName Q4
SYMATTR Value IPP200N25N3
SYMBOL sw 3072 0 R180
SYMATTR InstName S1
SYMATTR Value MYSW
SYMBOL Voltage 3216 -96 R0
SYMATTR InstName V4
SYMATTR Value PULSE(5 0 0 1n 1n 20m)
SYMATTR SpiceLine Rser=0
SYMBOL cap 2336 -112 R0
SYMATTR InstName C9
SYMATTR Value 220Ą
SYMBOL Cap 2432 -112 R0
SYMATTR InstName C10
SYMATTR Value 10n
SYMBOL Cap 2528 -112 R0
SYMATTR InstName C11
SYMATTR Value 1n
SYMBOL Cap -944 -32 R0
SYMATTR InstName C8
SYMATTR Value 1n
SYMBOL Cap -880 -32 R0
SYMATTR InstName C12
SYMATTR Value 10n
SYMBOL nmos 1152 128 R0
WINDOW 0 52 26 Left 2
WINDOW 3 51 55 Left 2
SYMATTR InstName Q5
SYMATTR Value IPP200N25N3
SYMBOL nmos 736 128 R0
WINDOW 0 52 26 Left 2
WINDOW 3 51 55 Left 2
SYMATTR InstName Q6
SYMATTR Value IPP200N25N3
SYMBOL Cap -384 944 R0
SYMATTR InstName C13
SYMATTR Value 1Ą
SYMBOL Res -544 640 R0
SYMATTR InstName R10
SYMATTR Value 15k
SYMBOL Res -544 832 R0
SYMATTR InstName R11
SYMATTR Value 1.74k
SYMBOL Cap -160 656 R0
SYMATTR InstName C14
SYMATTR Value 47Ą
SYMBOL Cap -80 656 R0
SYMATTR InstName C15
SYMATTR Value 0.1Ą
SYMBOL Voltage -256 656 R0
SYMATTR InstName V2
SYMATTR Value 10.5
SYMBOL Voltage 4928 496 R180
WINDOW 0 24 96 Left 2
WINDOW 3 54 52 Left 2
SYMATTR InstName V5
SYMATTR Value PWL(0 100Meg 20m 100Meg 20.01m 25.45 30m 25.45 30.01m 560)
SYMBOL Res 4688 544 R0
SYMATTR InstName R32
SYMATTR Value R=V(VR)
SYMBOL Res 384 784 R90
WINDOW 0 0 56 VBottom 2
WINDOW 3 32 56 VTop 2
SYMATTR InstName R13
SYMATTR Value 0
SYMBOL Res 512 848 R90
WINDOW 0 0 56 VBottom 2
WINDOW 3 32 56 VTop 2
SYMATTR InstName R14
SYMATTR Value 0
SYMBOL Cap -160 1120 R0
SYMATTR InstName C16
SYMATTR Value 7p
SYMBOL Res 0 640 R0
SYMATTR InstName R12
SYMATTR Value 0
SYMBOL diode 1728 -32 M90
WINDOW 0 0 32 VBottom 2
WINDOW 3 32 32 VTop 2
SYMATTR InstName D4
SYMATTR Value VS-E5PX6012
SYMBOL diode 1728 -144 M90
WINDOW 0 0 32 VBottom 2
WINDOW 3 32 32 VTop 2
SYMATTR InstName D6
SYMATTR Value VS-E5PX6012
SYMBOL diode 1600 160 M180
WINDOW 0 24 64 Left 2
WINDOW 3 24 0 Left 2
SYMATTR InstName D7
SYMATTR Value VS-E5PX6012
SYMBOL diode 1632 -304 M0
SYMATTR InstName D8
SYMATTR Value VS-E5PX6012
SYMBOL Res 432 976 R90
WINDOW 0 0 56 VBottom 2
WINDOW 3 32 56 VTop 2
SYMATTR InstName R7
SYMATTR Value 200k
SYMBOL Cap 448 992 R0
SYMATTR InstName C3
SYMATTR Value 0.001Ą
SYMBOL LTC3721-1 16 2384 R0
SYMATTR InstName U2
SYMBOL res 1008 2400 R270
WINDOW 0 32 56 VTop 2
WINDOW 3 0 56 VBottom 2
SYMATTR InstName R15
SYMATTR Value 1m
SYMBOL res 336 2368 R90
WINDOW 0 0 56 VBottom 2
WINDOW 3 32 56 VTop 2
SYMATTR InstName R16
SYMATTR Value 100
SYMBOL cap -96 2576 R0
WINDOW 3 30 52 Left 2
SYMATTR Value 330p
SYMATTR InstName C17
SYMBOL res -160 2304 R90
WINDOW 0 0 56 VBottom 2
WINDOW 3 32 56 VTop 2
SYMATTR InstName R17
SYMATTR Value 100K
SYMBOL res -160 2432 R90
WINDOW 0 0 56 VBottom 2
WINDOW 3 32 56 VTop 2
SYMATTR InstName R18
SYMATTR Value 100K
SYMBOL cap -240 2592 R0
WINDOW 3 30 52 Left 2
SYMATTR Value .1Ą
SYMATTR InstName C18
SYMBOL ind2 1408 1392 R180
WINDOW 0 36 80 Left 2
WINDOW 3 36 40 Left 2
SYMATTR InstName L5
SYMATTR Value 9.25Ą
SYMATTR Type ind
SYMATTR SpiceLine Rser=0.15m
SYMBOL ind2 1408 1504 R180
WINDOW 0 36 80 Left 2
WINDOW 3 36 40 Left 2
SYMATTR InstName L6
SYMATTR Value 9.25Ą
SYMATTR Type ind
SYMATTR SpiceLine Rser=0.15m
SYMBOL ind2 1504 1328 M0
WINDOW 0 -4 38 Right 2
WINDOW 3 -4 71 Right 2
SYMATTR InstName L7
SYMATTR Value 1332Ą
SYMATTR Type ind
SYMATTR SpiceLine Rser=25m
SYMBOL ind 2048 1344 R270
WINDOW 0 32 56 VTop 2
WINDOW 3 5 56 VBottom 2
SYMATTR InstName L8
SYMATTR Value 110Ą
SYMBOL res 2192 2400 R0
SYMATTR InstName R19
SYMATTR Value 169k
SYMBOL res 2192 2512 R0
SYMATTR InstName R20
SYMATTR Value 500
SYMBOL cap 2240 1344 R0
SYMATTR InstName C19
SYMATTR Value 220Ą
SYMBOL cap -416 2272 R0
SYMATTR InstName C20
SYMATTR Value .001Ą
SYMBOL nmos 560 1584 R0
WINDOW 0 52 26 Left 2
WINDOW 3 51 55 Invisible 2
SYMATTR InstName Q7
SYMATTR Value IPP200N25N3
SYMBOL nmos 960 1584 R0
WINDOW 0 52 26 Left 2
WINDOW 3 51 55 Invisible 2
SYMATTR InstName Q8
SYMATTR Value IPP200N25N3
SYMBOL Cap -800 1424 R0
SYMATTR InstName C21
SYMATTR Value 220Ą
SYMBOL Cap -720 1424 R0
SYMATTR InstName C22
SYMATTR Value 220Ą
SYMBOL Res 2320 2528 R270
WINDOW 0 32 56 VTop 2
WINDOW 3 0 56 VBottom 2
SYMATTR InstName R22
SYMATTR Value 1.2k
SYMBOL diode 1904 1312 M90
WINDOW 0 0 32 VBottom 2
WINDOW 3 32 32 VTop 2
SYMATTR InstName D9
SYMATTR Value VS-E5PX6012
SYMBOL diode 1904 1424 M90
WINDOW 0 0 32 VBottom 2
WINDOW 3 32 32 VTop 2
SYMATTR InstName D10
SYMATTR Value VS-E5PX6012
SYMBOL diode 1600 1520 M180
WINDOW 0 24 64 Left 2
WINDOW 3 24 0 Left 2
SYMATTR InstName D11
SYMATTR Value VS-E5PX6012
SYMBOL diode 1632 1248 M0
SYMATTR InstName D12
SYMATTR Value VS-E5PX6012
SYMBOL nmos 1056 1584 R0
WINDOW 0 52 26 Left 2
WINDOW 3 51 55 Invisible 2
SYMATTR InstName Q9
SYMATTR Value IPP200N25N3
SYMBOL nmos 656 1584 R0
WINDOW 0 52 26 Left 2
WINDOW 3 51 55 Invisible 2
SYMATTR InstName Q10
SYMATTR Value IPP200N25N3
SYMBOL cap 2336 1344 R0
SYMATTR InstName C23
SYMATTR Value 220Ą
SYMBOL Cap 2432 1344 R0
SYMATTR InstName C24
SYMATTR Value 10n
SYMBOL Cap 2528 1344 R0
SYMATTR InstName C25
SYMATTR Value 1n
SYMBOL Cap -944 1424 R0
SYMATTR InstName C26
SYMATTR Value 1n
SYMBOL Cap -880 1424 R0
SYMATTR InstName C27
SYMATTR Value 10n
SYMBOL nmos 1152 1584 R0
WINDOW 0 52 26 Left 2
WINDOW 3 51 55 Left 2
SYMATTR InstName Q11
SYMATTR Value IPP200N25N3
SYMBOL nmos 736 1584 R0
WINDOW 0 52 26 Left 2
WINDOW 3 51 55 Left 2
SYMATTR InstName Q12
SYMATTR Value IPP200N25N3
SYMBOL Cap -384 2400 R0
SYMATTR InstName C28
SYMATTR Value 1Ą
SYMBOL Res -544 2096 R0
SYMATTR InstName R23
SYMATTR Value 15k
SYMBOL Res -544 2288 R0
SYMATTR InstName R24
SYMATTR Value 1.74k
SYMBOL Cap -160 2112 R0
SYMATTR InstName C29
SYMATTR Value 47Ą
SYMBOL Cap -80 2112 R0
SYMATTR InstName C30
SYMATTR Value 0.1Ą
SYMBOL Voltage -256 2112 R0
SYMATTR InstName V8
SYMATTR Value 10.5
SYMBOL Res 384 2240 R90
WINDOW 0 0 56 VBottom 2
WINDOW 3 32 56 VTop 2
SYMATTR InstName R25
SYMATTR Value 0
SYMBOL Res 512 2304 R90
WINDOW 0 0 56 VBottom 2
WINDOW 3 32 56 VTop 2
SYMATTR InstName R26
SYMATTR Value 0
SYMBOL Cap -160 2576 R0
SYMATTR InstName C31
SYMATTR Value 7p
SYMBOL Res 0 2096 R0
SYMATTR InstName R27
SYMATTR Value 0
SYMBOL Voltage 3376 2560 R0
SYMATTR InstName V9
SYMATTR Value PWL(0 1.25)
SYMBOL diode 1728 1424 M90
WINDOW 0 0 32 VBottom 2
WINDOW 3 32 32 VTop 2
SYMATTR InstName D13
SYMATTR Value VS-E5PX6012
SYMBOL diode 1728 1312 M90
WINDOW 0 0 32 VBottom 2
WINDOW 3 32 32 VTop 2
SYMATTR InstName D14
SYMATTR Value VS-E5PX6012
SYMBOL diode 1600 1616 M180
WINDOW 0 24 64 Left 2
WINDOW 3 24 0 Left 2
SYMATTR InstName D15
SYMATTR Value VS-E5PX6012
SYMBOL diode 1632 1152 M0
SYMATTR InstName D16
SYMATTR Value VS-E5PX6012
SYMBOL Res 432 2432 R90
WINDOW 0 0 56 VBottom 2
WINDOW 3 32 56 VTop 2
SYMATTR InstName R28
SYMATTR Value 200k
SYMBOL Cap 448 2448 R0
SYMATTR InstName C32
SYMATTR Value 0.001Ą
SYMBOL LTC3721-1 16 3840 R0
SYMATTR InstName U3
SYMBOL res 1008 3856 R270
WINDOW 0 32 56 VTop 2
WINDOW 3 0 56 VBottom 2
SYMATTR InstName R29
SYMATTR Value 1m
SYMBOL res 336 3824 R90
WINDOW 0 0 56 VBottom 2
WINDOW 3 32 56 VTop 2
SYMATTR InstName R30
SYMATTR Value 100
SYMBOL cap -96 4032 R0
WINDOW 3 30 52 Left 2
SYMATTR Value 330p
SYMATTR InstName C33
SYMBOL res -160 3760 R90
WINDOW 0 0 56 VBottom 2
WINDOW 3 32 56 VTop 2
SYMATTR InstName R31
SYMATTR Value 100K
SYMBOL res -160 3888 R90
WINDOW 0 0 56 VBottom 2
WINDOW 3 32 56 VTop 2
SYMATTR InstName R33
SYMATTR Value 100K
SYMBOL cap -240 4048 R0
WINDOW 3 30 52 Left 2
SYMATTR Value .1Ą
SYMATTR InstName C34
SYMBOL ind2 1408 2848 R180
WINDOW 0 36 80 Left 2
WINDOW 3 36 40 Left 2
SYMATTR InstName L9
SYMATTR Value 9.25Ą
SYMATTR Type ind
SYMATTR SpiceLine Rser=0.15m
SYMBOL ind2 1408 2960 R180
WINDOW 0 36 80 Left 2
WINDOW 3 36 40 Left 2
SYMATTR InstName L10
SYMATTR Value 9.25Ą
SYMATTR Type ind
SYMATTR SpiceLine Rser=0.15m
SYMBOL ind2 1504 2784 M0
WINDOW 0 -4 38 Right 2
WINDOW 3 -4 71 Right 2
SYMATTR InstName L11
SYMATTR Value 1332Ą
SYMATTR Type ind
SYMATTR SpiceLine Rser=25m
SYMBOL ind 2048 2800 R270
WINDOW 0 32 56 VTop 2
WINDOW 3 5 56 VBottom 2
SYMATTR InstName L12
SYMATTR Value 110Ą
SYMBOL res 2192 3856 R0
SYMATTR InstName R34
SYMATTR Value 169k
SYMBOL res 2192 3968 R0
SYMATTR InstName R35
SYMATTR Value 500
SYMBOL cap 2240 2800 R0
SYMATTR InstName C35
SYMATTR Value 220Ą
SYMBOL cap -416 3728 R0
SYMATTR InstName C36
SYMATTR Value .001Ą
SYMBOL nmos 560 3040 R0
WINDOW 0 52 26 Left 2
WINDOW 3 51 55 Invisible 2
SYMATTR InstName Q13
SYMATTR Value IPP200N25N3
SYMBOL nmos 960 3040 R0
WINDOW 0 52 26 Left 2
WINDOW 3 51 55 Invisible 2
SYMATTR InstName Q14
SYMATTR Value IPP200N25N3
SYMBOL Cap -800 2880 R0
SYMATTR InstName C37
SYMATTR Value 220Ą
SYMBOL Cap -720 2880 R0
SYMATTR InstName C38
SYMATTR Value 220Ą
SYMBOL Res 2320 3984 R270
WINDOW 0 32 56 VTop 2
WINDOW 3 0 56 VBottom 2
SYMATTR InstName R37
SYMATTR Value 1.2k
SYMBOL diode 1904 2768 M90
WINDOW 0 0 32 VBottom 2
WINDOW 3 32 32 VTop 2
SYMATTR InstName D17
SYMATTR Value VS-E5PX6012
SYMBOL diode 1904 2880 M90
WINDOW 0 0 32 VBottom 2
WINDOW 3 32 32 VTop 2
SYMATTR InstName D18
SYMATTR Value VS-E5PX6012
SYMBOL diode 1600 2976 M180
WINDOW 0 24 64 Left 2
WINDOW 3 24 0 Left 2
SYMATTR InstName D19
SYMATTR Value VS-E5PX6012
SYMBOL diode 1632 2704 M0
SYMATTR InstName D20
SYMATTR Value VS-E5PX6012
SYMBOL nmos 1056 3040 R0
WINDOW 0 52 26 Left 2
WINDOW 3 51 55 Invisible 2
SYMATTR InstName Q15
SYMATTR Value IPP200N25N3
SYMBOL nmos 656 3040 R0
WINDOW 0 52 26 Left 2
WINDOW 3 51 55 Invisible 2
SYMATTR InstName Q16
SYMATTR Value IPP200N25N3
SYMBOL cap 2336 2800 R0
SYMATTR InstName C39
SYMATTR Value 220Ą
SYMBOL Cap 2432 2800 R0
SYMATTR InstName C40
SYMATTR Value 10n
SYMBOL Cap 2528 2800 R0
SYMATTR InstName C41
SYMATTR Value 1n
SYMBOL Cap -944 2880 R0
SYMATTR InstName C42
SYMATTR Value 1n
SYMBOL Cap -880 2880 R0
SYMATTR InstName C43
SYMATTR Value 10n
SYMBOL nmos 1152 3040 R0
WINDOW 0 52 26 Left 2
WINDOW 3 51 55 Left 2
SYMATTR InstName Q17
SYMATTR Value IPP200N25N3
SYMBOL nmos 736 3040 R0
WINDOW 0 52 26 Left 2
WINDOW 3 51 55 Left 2
SYMATTR InstName Q18
SYMATTR Value IPP200N25N3
SYMBOL Cap -384 3856 R0
SYMATTR InstName C44
SYMATTR Value 1Ą
SYMBOL Res -544 3552 R0
SYMATTR InstName R38
SYMATTR Value 15k
SYMBOL Res -544 3744 R0
SYMATTR InstName R39
SYMATTR Value 1.74k
SYMBOL Cap -160 3568 R0
SYMATTR InstName C45
SYMATTR Value 47Ą
SYMBOL Cap -80 3568 R0
SYMATTR InstName C46
SYMATTR Value 0.1Ą
SYMBOL Voltage -256 3568 R0
SYMATTR InstName V12
SYMATTR Value 10.5
SYMBOL Res 384 3696 R90
WINDOW 0 0 56 VBottom 2
WINDOW 3 32 56 VTop 2
SYMATTR InstName R40
SYMATTR Value 0
SYMBOL Res 512 3760 R90
WINDOW 0 0 56 VBottom 2
WINDOW 3 32 56 VTop 2
SYMATTR InstName R41
SYMATTR Value 0
SYMBOL Cap -160 4032 R0
SYMATTR InstName C47
SYMATTR Value 7p
SYMBOL Res 0 3552 R0
SYMATTR InstName R42
SYMATTR Value 0
SYMBOL diode 1728 2880 M90
WINDOW 0 0 32 VBottom 2
WINDOW 3 32 32 VTop 2
SYMATTR InstName D21
SYMATTR Value VS-E5PX6012
SYMBOL diode 1728 2768 M90
WINDOW 0 0 32 VBottom 2
WINDOW 3 32 32 VTop 2
SYMATTR InstName D22
SYMATTR Value VS-E5PX6012
SYMBOL diode 1600 3072 M180
WINDOW 0 24 64 Left 2
WINDOW 3 24 0 Left 2
SYMATTR InstName D23
SYMATTR Value VS-E5PX6012
SYMBOL diode 1632 2608 M0
SYMATTR InstName D24
SYMATTR Value VS-E5PX6012
SYMBOL Res 432 3888 R90
WINDOW 0 0 56 VBottom 2
WINDOW 3 32 56 VTop 2
SYMATTR InstName R43
SYMATTR Value 200k
SYMBOL Cap 448 3904 R0
SYMATTR InstName C48
SYMATTR Value 0.001Ą
TEXT 3520 448 Bottom 2 !K1 L1 L2 L3 0.999
TEXT 4392 -184 Left 2 !.model MYSW SW(Ron=0.0001 Roff=10Meg Vt=.5 Vh=-.4)
TEXT -2744 168 Left 2 ;DCDC2400-001 Transformer from Premo
TEXT -2744 96 Left 2 ;CPEX3635L-111MC Inductor
TEXT -2272 -448 Left 2 !.tran 2 startup
TEXT 4344 -56 Left 2 ;Set DAC output to 1.25V for a converter output of about 400V
TEXT 4344 -32 Left 2 ;Set DAC output to 2.1V for a converter output of about 280V
TEXT -2744 -240 Left 2 ;R10: RNCP1206FTD15K0
TEXT -2744 -192 Left 2 ;R11: ERJ-1GNF1741C
TEXT -2744 -72 Left 2 ;R3, R4: RC0402FR-07100KL
TEXT -2744 -48 Left 2 ;R2: RC0402FR-07100RL
TEXT -2744 0 Left 2 ;R7: ERA-3AEB204V
TEXT -2744 120 Left 2 ;R5: CRCW2512169KFKEG
TEXT -2744 144 Left 2 ;R6: PNM0402E5000BST1
TEXT -2744 192 Left 2 ;R9: RC0402JR-071K2L
TEXT -2744 -120 Left 2 ;C14: CGA9N3X7R1C476M230KB (ceramic)
TEXT -2744 -96 Left 2 ;C15: KGM05AR71C104KH (ceramic)
TEXT -2744 -216 Left 2 ;C6: GRM1555C1H102JA01D (ceramic)
TEXT -2744 -168 Left 2 ;C13: CC0603KRX7R7BB105 (ceramic)
TEXT -2744 -144 Left 2 ;C2: CL05B104KP5NNNC (ceramic)
TEXT -2744 48 Left 2 ;C1: GRM1555C1H331JA01D (ceramic)
TEXT -2744 24 Left 2 ;C16: CL10C070CB8NNNC (ceramic)
TEXT -2744 -24 Left 2 ;C3: GRM1555C1H102JA01D (ceramic)
TEXT -2744 -312 Left 2 ;C8: KGM15BR72D102KT (ceramic)
TEXT -2744 -288 Left 2 ;C12: C0603X103K2RECAUTO (ceramic)
TEXT -2744 -264 Left 2 ;C5, C7: UCS2C221MHD1TN (aluminum electrolytic)
TEXT -2744 240 Left 2 ;C10: C1206C103KCRAC7800 (ceramic)
TEXT -2744 216 Left 2 ;C11: VPCT501W102K1GV001T (ceramic)
TEXT -2744 264 Left 2 ;C4, C9: 450VXH220MEFCSN25X35 (aluminum electrolytic)
TEXT -2744 72 Left 2 ;R1: SSA2512LR001JWR
TEXT 3520 488 Bottom 2 !K2 L5 L6 L7 0.999
TEXT 3520 528 Bottom 2 !K3 L9 L10 L11 0.999
