Version 4.1
SHEET 1 3500 1956
WIRE 2432 -544 2336 -544
WIRE 2608 -544 2496 -544
WIRE 2688 -544 2608 -544
WIRE 2864 -544 2768 -544
WIRE 2992 -544 2864 -544
WIRE 3056 -544 2992 -544
WIRE 672 -512 544 -512
WIRE 752 -512 672 -512
WIRE 848 -512 752 -512
WIRE 1200 -512 848 -512
WIRE 2224 -512 1200 -512
WIRE 672 -496 672 -512
WIRE 752 -496 752 -512
WIRE 2224 -496 2224 -512
WIRE 2336 -496 2336 -544
WIRE 2608 -496 2608 -544
WIRE 2864 -496 2864 -544
WIRE 3056 -496 3056 -544
WIRE 544 -464 544 -512
WIRE 672 -416 672 -432
WIRE 752 -416 752 -432
WIRE 1984 -400 1968 -400
WIRE 2064 -400 2048 -400
WIRE 2176 -400 2144 -400
WIRE 2224 -400 2224 -416
WIRE 2224 -400 2176 -400
WIRE 2336 -368 2336 -416
WIRE 2608 -368 2608 -432
WIRE 2864 -368 2864 -432
WIRE 3056 -368 3056 -416
WIRE 544 -352 544 -384
WIRE 1968 -320 1968 -400
WIRE 2032 -320 1968 -320
WIRE 2176 -320 2176 -400
WIRE 2176 -320 2096 -320
WIRE 1296 -288 1296 -336
WIRE 1392 -288 1392 -336
WIRE 1456 -288 1392 -288
WIRE 1392 -272 1392 -288
WIRE 1456 -272 1456 -288
WIRE 1616 -240 1488 -240
WIRE 1728 -240 1680 -240
WIRE 1856 -240 1728 -240
WIRE 1888 -240 1856 -240
WIRE 1920 -240 1888 -240
WIRE 1728 -224 1728 -240
WIRE 1856 -208 1856 -240
WIRE 848 -192 848 -512
WIRE 1392 -176 1392 -208
WIRE 1456 -176 1456 -208
WIRE 1456 -176 1392 -176
WIRE 2176 -176 2176 -320
WIRE 1200 -160 1200 -512
WIRE 1296 -160 1296 -208
WIRE 1392 -160 1392 -176
WIRE 1488 -160 1488 -240
WIRE 1728 -128 1728 -144
WIRE 1856 -128 1856 -144
WIRE 1968 -128 1968 -224
WIRE 848 -96 848 -112
WIRE 1056 -96 848 -96
WIRE 1088 -96 1056 -96
WIRE 2096 -96 1600 -96
WIRE 2128 -96 2096 -96
WIRE 848 0 848 -16
WIRE 1056 0 848 0
WIRE 1088 0 1056 0
WIRE 1664 0 1600 0
WIRE 1824 0 1744 0
WIRE 976 96 912 96
WIRE 1072 96 1040 96
WIRE 1088 96 1072 96
WIRE 1632 96 1600 96
WIRE 1664 96 1632 96
WIRE 1824 96 1824 0
WIRE 1824 96 1744 96
WIRE 2176 96 2176 -80
WIRE 2176 96 1824 96
WIRE 848 128 848 80
WIRE 2176 128 2176 96
WIRE 976 192 912 192
WIRE 1072 192 1040 192
WIRE 1088 192 1072 192
WIRE 1632 192 1600 192
WIRE 1792 192 1712 192
WIRE 1936 192 1856 192
WIRE 2992 192 2992 -544
WIRE 2176 240 2176 208
WIRE 1088 288 1056 288
WIRE 1648 288 1600 288
WIRE 1712 288 1712 192
WIRE 1712 288 1648 288
WIRE 1760 288 1712 288
WIRE 1856 288 1840 288
WIRE 1936 288 1936 192
WIRE 1936 288 1920 288
WIRE 1984 288 1936 288
WIRE 2064 288 1984 288
WIRE 2992 288 2992 272
WIRE 2992 288 2144 288
WIRE 2992 320 2992 288
WIRE 1088 384 1056 384
WIRE 1632 384 1600 384
WIRE 1984 384 1984 288
WIRE 1984 384 1632 384
WIRE 2992 432 2992 400
WIRE 1088 480 1056 480
WIRE 1152 576 1152 544
WIRE 1248 576 1248 544
WIRE 1344 576 1344 544
WIRE 1152 688 1152 656
WIRE 1248 688 1248 656
WIRE 1344 688 1344 656
FLAG 672 -416 0
FLAG 752 -416 0
FLAG 544 -352 0
FLAG 544 -512 IN
FLAG 1056 384 0
FLAG 1056 480 0
FLAG 912 192 0
FLAG 912 96 0
FLAG 848 128 0
FLAG 1296 -336 0
FLAG 1392 -336 0
FLAG 1344 688 0
FLAG 2176 240 0
FLAG 2608 -368 0
FLAG 1632 192 0
FLAG 3056 -368 0
FLAG 2336 -368 0
FLAG 2864 -368 0
FLAG 1248 688 0
FLAG 1152 688 0
FLAG 3056 -544 OUT
FLAG 2992 432 0
FLAG 1888 -240 MOS1
FLAG 2096 -96 MOS2
FLAG 1632 384 FB
FLAG 1728 -128 0
FLAG 1856 -128 0
FLAG 1968 -128 0
FLAG 1072 96 SS1
FLAG 1072 192 SS2
FLAG 1392 -176 INTVcc
FLAG 1056 -96 UVLO
FLAG 1056 0 OVLO
FLAG 1632 96 Isense
FLAG 1648 288 COMP
FLAG 1056 288 0
SYMBOL voltage 544 -480 R0
WINDOW 123 0 0 Left 0
WINDOW 39 24 124 Left 2
SYMATTR SpiceLine Rser=1m
SYMATTR InstName V1
SYMATTR Value 60
SYMBOL cap 656 -496 R0
SYMATTR InstName C1
SYMATTR Value 1µ
SYMBOL cap 736 -496 R0
SYMATTR InstName C2
SYMATTR Value 1µ
SYMBOL PowerProducts\\LT3753 1344 192 R0
SYMATTR InstName U1
SYMBOL cap 1040 176 R90
WINDOW 0 0 32 VBottom 2
WINDOW 3 32 32 VTop 2
SYMATTR InstName C4
SYMATTR Value 1n
SYMBOL cap 1040 80 R90
WINDOW 0 0 32 VBottom 2
WINDOW 3 32 32 VTop 2
SYMATTR InstName C3
SYMATTR Value 1n
SYMBOL res 832 -112 R0
SYMATTR InstName R2
SYMATTR Value 2k
SYMBOL res 832 -16 R0
SYMATTR InstName R3
SYMATTR Value 2k
SYMBOL res 832 -208 R0
SYMATTR InstName R1
SYMATTR Value 140k
SYMBOL res 1280 -304 R0
SYMATTR InstName R4
SYMATTR Value 24.9k
SYMBOL cap 1376 -272 R0
SYMATTR InstName C5
SYMATTR Value 4.7µ
SYMBOL res 1328 560 R0
SYMATTR InstName R9
SYMATTR Value 44.2k
SYMBOL cap 1680 -256 R90
WINDOW 0 0 32 VBottom 2
WINDOW 3 32 32 VTop 2
SYMATTR InstName C6
SYMATTR Value 100n
SYMBOL res 1712 -240 R0
SYMATTR InstName R5
SYMATTR Value 10k
SYMBOL diode 1840 -208 R0
SYMATTR InstName D3
SYMBOL pmos 1920 -320 R0
SYMATTR InstName M8
SYMATTR Value ZXMP10A18G
SYMBOL cap 2048 -416 R90
WINDOW 0 0 32 VBottom 2
WINDOW 3 32 32 VTop 2
SYMATTR InstName C7
SYMATTR Value 0.22µ
SYMBOL nmos 2128 -176 R0
SYMATTR InstName M9
SYMATTR Value IPB144N12N3
SYMBOL ind2 2208 -512 R0
WINDOW 0 46 40 Left 2
WINDOW 3 44 80 Left 2
SYMATTR InstName L1
SYMATTR Value 25µ
SYMBOL ind2 2352 -512 M0
WINDOW 0 -44 41 Left 2
WINDOW 3 -74 77 Left 2
SYMATTR InstName L2
SYMATTR Value 625µ
SYMBOL res 2160 -416 R90
WINDOW 0 0 56 VBottom 2
WINDOW 3 32 56 VTop 2
SYMATTR InstName R6
SYMATTR Value 200
SYMBOL res 1760 80 R90
WINDOW 0 0 56 VBottom 2
WINDOW 3 32 56 VTop 2
SYMATTR InstName R_SENSE
SYMATTR Value 1k
SYMBOL res 2160 112 R0
SYMATTR InstName R10
SYMATTR Value 1m
SYMBOL diode 2432 -528 R270
WINDOW 0 32 32 VTop 2
WINDOW 3 0 32 VBottom 2
SYMATTR InstName D1
SYMBOL diode 2624 -432 R180
WINDOW 0 24 64 Left 2
WINDOW 3 24 0 Left 2
SYMATTR InstName D2
SYMBOL ind 2672 -528 R270
WINDOW 0 32 56 VTop 2
WINDOW 3 5 56 VBottom 2
SYMATTR InstName L3
SYMATTR Value 50µ
SYMBOL cap 2848 -496 R0
SYMATTR InstName C8
SYMATTR Value 100µ
SYMBOL res 3040 -512 R0
SYMATTR InstName R_LOAD
SYMATTR Value 170
SYMBOL res 1856 272 R90
WINDOW 0 0 56 VBottom 2
WINDOW 3 32 56 VTop 2
SYMATTR InstName R12
SYMATTR Value 200k
SYMBOL res 1232 560 R0
SYMATTR InstName R8
SYMATTR Value 14.7k
SYMBOL res 1136 560 R0
SYMATTR InstName R7
SYMATTR Value 57.6k
SYMBOL res 2976 176 R0
SYMATTR InstName R13
SYMATTR Value 145k
SYMBOL res 2976 304 R0
SYMATTR InstName R15
SYMATTR Value 1k
SYMBOL cap 2096 -336 R90
WINDOW 0 0 32 VBottom 2
WINDOW 3 32 32 VTop 2
SYMATTR InstName C9
SYMATTR Value 65n
SYMBOL cap 1920 272 R90
WINDOW 0 0 32 VBottom 2
WINDOW 3 32 32 VTop 2
SYMATTR InstName C10
SYMATTR Value 10µ
SYMBOL res 1760 -16 R90
WINDOW 0 0 56 VBottom 2
WINDOW 3 32 56 VTop 2
SYMATTR InstName R14
SYMATTR Value 1µ
SYMBOL res 2160 272 R90
WINDOW 0 0 56 VBottom 2
WINDOW 3 32 56 VTop 2
SYMATTR InstName R11
SYMATTR Value 1m
SYMBOL cap 1856 176 R90
WINDOW 0 0 32 VBottom 2
WINDOW 3 32 32 VTop 2
SYMATTR InstName C11
SYMATTR Value 50n
SYMBOL cap 1440 -272 R0
SYMATTR InstName C12
SYMATTR Value 0.1µ
TEXT 528 -648 Left 2 !.tran 0 30m 0 100n startup uic
TEXT 2192 -576 Left 2 !K1 L1 L2 0.95
TEXT 2376 -696 Left 2 !.option noopiter
TEXT 3216 -504 Left 2 ;1200W load @ 24 OHMS
TEXT 3232 -456 Left 2 ;170W load @ 1 OHM
