Version 4.1
SHEET 1 3576 932
WIRE 208 -656 -464 -656
WIRE 1408 -656 208 -656
WIRE -464 -592 -464 -656
WIRE 480 -576 336 -576
WIRE 608 -576 480 -576
WIRE 1136 -576 608 -576
WIRE 1344 -576 1136 -576
WIRE 1616 -576 1344 -576
WIRE 2128 -576 1616 -576
WIRE 2512 -576 2128 -576
WIRE 2880 -576 2512 -576
WIRE 1136 -544 1136 -576
WIRE 1616 -544 1616 -576
WIRE 480 -528 480 -576
WIRE -464 -496 -464 -512
WIRE 1408 -496 1408 -656
WIRE 1408 -496 1248 -496
WIRE 1504 -496 1408 -496
WIRE 208 -480 208 -656
WIRE 608 -448 608 -576
WIRE 736 -448 608 -448
WIRE 1136 -448 1136 -480
WIRE 1136 -448 992 -448
WIRE 1248 -448 1248 -496
WIRE 1504 -448 1504 -496
WIRE 1616 -448 1616 -480
WIRE 1744 -448 1616 -448
WIRE 2128 -448 2128 -576
WIRE 2128 -448 2000 -448
WIRE 480 -416 480 -448
WIRE 736 -368 608 -368
WIRE 1200 -368 992 -368
WIRE 1744 -368 1552 -368
WIRE 2128 -368 2000 -368
WIRE 336 -352 336 -576
WIRE 1136 -352 1136 -448
WIRE 1616 -352 1616 -448
WIRE 96 -336 80 -336
WIRE 208 -336 208 -400
WIRE 208 -336 176 -336
WIRE 736 -288 704 -288
WIRE 1136 -288 992 -288
WIRE 1248 -288 1248 -352
WIRE 1248 -288 1136 -288
WIRE 1504 -288 1504 -352
WIRE 1616 -288 1504 -288
WIRE 1744 -288 1616 -288
WIRE 2032 -288 2000 -288
WIRE 3008 -240 2352 -240
WIRE 3056 -240 3008 -240
WIRE 3184 -240 3136 -240
WIRE 3280 -240 3184 -240
WIRE 3456 -240 3280 -240
WIRE 336 -224 336 -272
WIRE 464 -224 336 -224
WIRE 1248 -224 1248 -288
WIRE 2176 -224 1248 -224
WIRE 464 -208 464 -224
WIRE 2176 -208 2176 -224
WIRE 2352 -208 2352 -240
WIRE 3456 -208 3456 -240
WIRE 3280 -192 3280 -240
WIRE -160 -144 -160 -176
WIRE 464 -128 464 -144
WIRE 208 -112 208 -336
WIRE 1504 -112 1504 -288
WIRE 2176 -112 2176 -128
WIRE 2176 -112 1504 -112
WIRE 3280 -112 3280 -128
WIRE 3456 -112 3456 -128
WIRE 336 -96 336 -224
WIRE 1344 -96 1344 -576
WIRE 1344 -96 1120 -96
WIRE 1632 -96 1344 -96
WIRE 2352 -96 2352 -128
WIRE 2640 -96 2352 -96
WIRE 3056 -96 2640 -96
WIRE 3184 -96 3184 -240
WIRE 3184 -96 3136 -96
WIRE 208 -64 208 -112
WIRE 336 -64 336 -96
WIRE 1120 -64 1120 -96
WIRE 1632 -64 1632 -96
WIRE 1248 -32 1248 -224
WIRE 1504 -32 1504 -112
WIRE -160 -16 -160 -64
WIRE 0 -16 -160 -16
WIRE 80 -16 0 -16
WIRE 496 -16 464 -16
WIRE 608 -16 608 -368
WIRE 608 -16 496 -16
WIRE 1056 -16 1008 -16
WIRE 1744 -16 1696 -16
WIRE 2512 -16 2512 -576
WIRE -160 16 -160 -16
WIRE 2640 16 2640 -96
WIRE 2448 32 2400 32
WIRE 0 48 0 -16
WIRE 80 48 0 48
WIRE 496 48 464 48
WIRE 1008 48 1008 -16
WIRE 1008 48 496 48
WIRE 1120 48 1120 32
WIRE 1200 48 1120 48
WIRE 1632 48 1632 32
WIRE 1632 48 1552 48
WIRE 1744 48 1744 -16
WIRE 1824 48 1744 48
WIRE 1120 64 1120 48
WIRE 1632 64 1632 48
WIRE 1248 96 1248 64
WIRE 1376 96 1248 96
WIRE 1504 96 1504 64
WIRE 1504 96 1376 96
WIRE 2400 96 2400 32
WIRE 2400 96 2352 96
WIRE 2512 96 2512 80
WIRE 2592 96 2512 96
WIRE 80 112 0 112
WIRE 496 112 464 112
WIRE 576 112 496 112
WIRE 656 112 576 112
WIRE 912 112 736 112
WIRE 1008 112 1008 48
WIRE 1056 112 1008 112
WIRE 1376 112 1376 96
WIRE 1744 112 1744 48
WIRE 1744 112 1696 112
WIRE 2512 112 2512 96
WIRE 576 128 576 112
WIRE 2640 128 2640 112
WIRE 2400 160 2400 96
WIRE 2448 160 2400 160
WIRE -160 176 -160 96
WIRE 0 176 0 112
WIRE 0 176 -160 176
WIRE 80 176 0 176
WIRE 496 176 464 176
WIRE 512 176 496 176
WIRE 2880 192 2880 -576
WIRE 912 208 912 112
WIRE 1248 208 1248 96
WIRE 1248 208 912 208
WIRE 512 224 512 176
WIRE 1824 224 1824 48
WIRE 1824 224 512 224
WIRE 3008 224 3008 -240
WIRE -32 240 -112 240
WIRE 80 240 48 240
WIRE 496 240 464 240
WIRE 2128 240 2128 -368
WIRE 2128 240 496 240
WIRE 2816 240 2768 240
WIRE -160 304 -160 176
WIRE -112 304 -160 304
WIRE 80 304 -32 304
WIRE 496 304 464 304
WIRE 2768 304 2768 240
WIRE 2768 304 496 304
WIRE 2880 304 2880 288
WIRE 2960 304 2880 304
WIRE 2880 320 2880 304
WIRE 3008 336 3008 320
WIRE -32 368 -160 368
WIRE 80 368 48 368
WIRE 496 368 464 368
WIRE 2352 368 2352 96
WIRE 2352 368 496 368
WIRE 2768 368 2768 304
WIRE 2816 368 2768 368
WIRE 3184 400 3184 -96
WIRE -144 432 -160 432
WIRE 80 432 -80 432
WIRE 496 432 464 432
WIRE 528 432 496 432
WIRE 672 432 608 432
WIRE 816 432 736 432
WIRE -64 496 -160 496
WIRE 48 496 0 496
WIRE 80 496 48 496
WIRE 496 496 464 496
WIRE 816 496 816 432
WIRE 816 496 496 496
WIRE 3184 496 3184 480
WIRE 3184 496 816 496
WIRE 3184 512 3184 496
WIRE 272 560 272 544
WIRE 400 560 400 544
WIRE 3184 608 3184 592
WIRE -16 640 -96 640
WIRE 144 640 144 544
WIRE 144 640 64 640
WIRE 144 672 144 640
WIRE 144 784 144 752
WIRE 144 912 144 864
FLAG 704 -288 0
FLAG 2032 -288 0
FLAG 480 -416 0
FLAG 1120 160 0
FLAG 1632 160 0
FLAG 576 192 0
FLAG 1376 192 0
FLAG 2512 208 0
FLAG 2880 416 0
FLAG 2640 128 0
FLAG 3008 336 0
FLAG 3184 608 0
FLAG 3280 -112 0
FLAG 3456 -112 0
FLAG 3456 -240 OUT
FLAG 80 -336 0
FLAG 272 560 0
FLAG 400 560 0
FLAG -160 432 0
FLAG -160 496 0
FLAG -160 368 0
FLAG -112 240 0
FLAG -160 -176 0
FLAG 496 -16 A
FLAG 496 48 B
FLAG 496 176 D
FLAG 496 240 C
FLAG 496 304 E
FLAG 496 368 F
FLAG 496 432 COMP
FLAG 496 496 FB
FLAG 496 112 CS
FLAG 336 -96 Vcc
FLAG 208 -112 UVLO
FLAG -464 -496 0
FLAG -464 -656 IN
FLAG 48 496 SS
FLAG 144 912 0
FLAG -96 640 0
FLAG 464 -128 0
SYMBOL PowerProducts\\LTC3722-1 272 240 R0
SYMATTR InstName U1
SYMBOL PowerProducts\\LTC4440 864 -368 R0
SYMATTR InstName U2
SYMBOL PowerProducts\\LTC4440 1872 -368 M0
SYMATTR InstName U3
SYMBOL voltage 480 -544 R0
SYMATTR InstName V2
SYMATTR Value 12
SYMBOL nmos 1200 -448 R0
WINDOW 3 57 59 Left 2
WINDOW 123 59 82 Left 2
SYMATTR Value IPB200N15N3
SYMATTR Value2 m=2
SYMATTR InstName M1
SYMBOL nmos 1552 -448 M0
WINDOW 3 57 7 Left 2
WINDOW 123 57 53 Left 2
SYMATTR Value IPB200N15N3
SYMATTR Value2 m=2
SYMATTR InstName M2
SYMBOL nmos 1200 -32 R0
WINDOW 3 57 58 Left 2
WINDOW 123 58 80 Left 2
SYMATTR Value IPB200N15N3
SYMATTR Value2 m=2
SYMATTR InstName M3
SYMBOL nmos 1552 -32 M0
WINDOW 3 56 6 Left 2
WINDOW 123 57 56 Left 2
SYMATTR Value IPB200N15N3
SYMATTR Value2 m=2
SYMATTR InstName M4
SYMBOL npn 1056 -64 R0
WINDOW 3 24 58 Left 2
SYMATTR Value 2SD1782K
SYMATTR InstName Q1
SYMBOL npn 1696 -64 M0
WINDOW 3 19 60 Left 2
SYMATTR Value 2SD1782K
SYMATTR InstName Q3
SYMBOL pnp 1056 160 M180
WINDOW 3 39 55 Left 2
SYMATTR Value 2SB1198K
SYMATTR InstName Q2
SYMBOL pnp 1696 160 R180
WINDOW 3 40 57 Left 2
SYMATTR Value 2SB1198K
SYMATTR InstName Q4
SYMBOL res 752 96 R90
WINDOW 0 0 56 VBottom 2
WINDOW 3 32 56 VTop 2
SYMATTR InstName R1
SYMATTR Value 2k
SYMBOL cap 560 128 R0
WINDOW 0 24 11 Left 2
WINDOW 3 25 50 Left 2
SYMATTR InstName C3
SYMATTR Value 100p
SYMBOL res 1360 96 R0
SYMATTR InstName R2
SYMATTR Value 10m
SYMBOL ind2 2160 -112 M180
WINDOW 0 36 80 Left 2
WINDOW 3 36 40 Left 2
SYMATTR InstName L1
SYMATTR Value 25Á
SYMBOL ind2 2368 -112 R180
WINDOW 0 36 80 Left 2
WINDOW 3 36 40 Left 2
SYMATTR InstName L2
SYMATTR Value 300Á
SYMBOL nmos 2592 16 R0
WINDOW 123 56 100 Left 2
SYMATTR Value2 m=4
SYMATTR InstName M5
SYMATTR Value IPB200N15N3
SYMBOL npn 2448 -16 R0
WINDOW 3 19 60 Left 2
SYMATTR Value 2SD1782K
SYMATTR InstName Q5
SYMBOL pnp 2448 208 M180
WINDOW 3 40 62 Left 2
SYMATTR Value 2SB1198K
SYMATTR InstName Q6
SYMBOL nmos 2960 224 R0
WINDOW 123 56 100 Left 2
SYMATTR Value2 m=4
SYMATTR InstName M6
SYMATTR Value IPB200N15N3
SYMBOL npn 2816 192 R0
WINDOW 3 25 60 Left 2
SYMATTR Value 2SD1782K
SYMATTR InstName Q7
SYMBOL pnp 2816 416 M180
WINDOW 3 44 62 Left 2
SYMATTR Value 2SB1198K
SYMATTR InstName Q8
SYMBOL ind 3040 -224 R270
WINDOW 0 32 56 VTop 2
WINDOW 3 5 56 VBottom 2
SYMATTR InstName L3
SYMATTR Value 50Á
SYMBOL ind 3040 -80 R270
WINDOW 0 32 56 VTop 2
WINDOW 3 5 56 VBottom 2
SYMATTR InstName L4
SYMATTR Value 50Á
SYMBOL res 624 416 R90
WINDOW 0 0 56 VBottom 2
WINDOW 3 32 56 VTop 2
SYMATTR InstName R3
SYMATTR Value 5k
SYMBOL cap 736 416 R90
WINDOW 0 0 32 VBottom 2
WINDOW 3 32 32 VTop 2
SYMATTR InstName C4
SYMATTR Value 0.15Á
SYMBOL res 3168 496 R0
SYMATTR InstName R4
SYMATTR Value 1k
SYMBOL res 3168 384 R0
SYMATTR InstName R5
SYMATTR Value 140k
SYMBOL cap 3264 -192 R0
SYMATTR InstName C5
SYMATTR Value 100Á
SYMBOL res 3440 -224 R0
SYMATTR InstName R_LOAD
SYMATTR Value 75
SYMBOL res 192 -496 R0
SYMATTR InstName R7
SYMATTR Value 80k
SYMBOL res 192 -352 R90
WINDOW 0 0 56 VBottom 2
WINDOW 3 32 56 VTop 2
SYMATTR InstName R8
SYMATTR Value 10k
SYMBOL cap 0 480 R90
WINDOW 0 0 32 VBottom 2
WINDOW 3 32 32 VTop 2
SYMATTR InstName C7
SYMATTR Value 1n
SYMBOL cap -80 416 R90
WINDOW 0 0 32 VBottom 2
WINDOW 3 32 32 VTop 2
SYMATTR InstName C8
SYMATTR Value 250p
SYMBOL res 64 352 R90
WINDOW 0 0 56 VBottom 2
WINDOW 3 32 56 VTop 2
SYMATTR InstName R9
SYMATTR Value 10k
SYMBOL res -16 288 R90
WINDOW 0 0 56 VBottom 2
WINDOW 3 32 56 VTop 2
SYMATTR InstName R10
SYMATTR Value 60k
SYMBOL res 64 224 R90
WINDOW 0 0 56 VBottom 2
WINDOW 3 32 56 VTop 2
SYMATTR InstName R11
SYMATTR Value 30k
SYMBOL res -176 0 R0
SYMATTR InstName R12
SYMATTR Value 80k
SYMBOL res -176 -160 R0
SYMATTR InstName R13
SYMATTR Value 5k
SYMBOL voltage -464 -608 R0
SYMATTR InstName V1
SYMATTR Value 60
SYMBOL cap 1120 -352 R0
WINDOW 0 46 26 Left 2
WINDOW 3 -76 28 Left 2
SYMATTR InstName C1
SYMATTR Value 0.22Á
SYMBOL cap 1600 -352 R0
WINDOW 3 -72 31 Left 2
WINDOW 0 44 32 Left 2
SYMATTR Value 0.22Á
SYMATTR InstName C2
SYMBOL res 128 656 R0
SYMATTR InstName R6
SYMATTR Value 1k
SYMBOL res 80 624 R90
WINDOW 0 0 56 VBottom 2
WINDOW 3 32 56 VTop 2
SYMATTR InstName R14
SYMATTR Value 5k
SYMBOL voltage 144 768 R0
SYMATTR InstName V3
SYMATTR Value PULSE(0 3.3 0 10n 10n 1.25u 2.5u)
SYMBOL res 320 -368 R0
SYMATTR InstName R15
SYMATTR Value 150
SYMBOL cap 448 -208 R0
SYMATTR InstName C6
SYMATTR Value 1Á
SYMBOL diode 1120 -544 R0
SYMATTR InstName D1
SYMBOL diode 1600 -544 R0
SYMATTR InstName D2
TEXT 2184 -272 Left 2 !K1 L1 L2 0.99
TEXT 40 -768 Left 2 !.tran 0 10m 0 100n startup
