Version 4.1
SHEET 1 3752 952
WIRE 2576 -752 2480 -752
WIRE 2672 -752 2576 -752
WIRE 2480 -720 2480 -752
WIRE 2576 -720 2576 -752
WIRE 208 -656 -384 -656
WIRE 1408 -656 208 -656
WIRE 2480 -640 2480 -656
WIRE 2480 -640 2400 -640
WIRE 2672 -640 2672 -752
WIRE 2800 -640 2672 -640
WIRE 3056 -640 2800 -640
WIRE 3328 -640 3136 -640
WIRE 3520 -640 3328 -640
WIRE 2400 -608 2400 -640
WIRE 2800 -608 2800 -640
WIRE -384 -592 -384 -656
WIRE 480 -576 336 -576
WIRE 608 -576 480 -576
WIRE 1136 -576 608 -576
WIRE 1344 -576 1136 -576
WIRE 1616 -576 1344 -576
WIRE 2128 -576 1616 -576
WIRE 1136 -544 1136 -576
WIRE 1616 -544 1616 -576
WIRE 480 -528 480 -576
WIRE -384 -496 -384 -512
WIRE 1408 -496 1408 -656
WIRE 1408 -496 1248 -496
WIRE 1504 -496 1408 -496
WIRE 2400 -496 2400 -528
WIRE 2576 -496 2576 -656
WIRE 2576 -496 2400 -496
WIRE 2800 -496 2800 -544
WIRE 2800 -496 2672 -496
WIRE 2928 -496 2800 -496
WIRE 208 -480 208 -656
WIRE 2480 -480 2480 -640
WIRE 2576 -480 2576 -496
WIRE 608 -448 608 -576
WIRE 736 -448 608 -448
WIRE 1136 -448 1136 -480
WIRE 1136 -448 992 -448
WIRE 1248 -448 1248 -496
WIRE 1504 -448 1504 -496
WIRE 1616 -448 1616 -480
WIRE 1744 -448 1616 -448
WIRE 2128 -448 2128 -576
WIRE 2128 -448 2000 -448
WIRE 480 -416 480 -448
WIRE 2480 -384 2480 -416
WIRE 2576 -384 2576 -416
WIRE 2576 -384 2480 -384
WIRE 2672 -384 2672 -496
WIRE 2672 -384 2576 -384
WIRE 736 -368 608 -368
WIRE 1200 -368 992 -368
WIRE 1744 -368 1552 -368
WIRE 2128 -368 2000 -368
WIRE 336 -352 336 -576
WIRE 1136 -352 1136 -448
WIRE 1616 -352 1616 -448
WIRE 2576 -352 2480 -352
WIRE 2672 -352 2576 -352
WIRE 96 -336 80 -336
WIRE 208 -336 208 -400
WIRE 208 -336 176 -336
WIRE 2480 -320 2480 -352
WIRE 2576 -320 2576 -352
WIRE 736 -288 704 -288
WIRE 1136 -288 992 -288
WIRE 1248 -288 1248 -352
WIRE 1248 -288 1136 -288
WIRE 1504 -288 1504 -352
WIRE 1616 -288 1504 -288
WIRE 1744 -288 1616 -288
WIRE 2032 -288 2000 -288
WIRE 2480 -240 2480 -256
WIRE 2480 -240 2400 -240
WIRE 2672 -240 2672 -352
WIRE 2800 -240 2672 -240
WIRE 2928 -240 2928 -496
WIRE 2928 -240 2800 -240
WIRE 336 -224 336 -272
WIRE 464 -224 336 -224
WIRE 1248 -224 1248 -288
WIRE 1888 -224 1248 -224
WIRE 2176 -224 1888 -224
WIRE 464 -208 464 -224
WIRE 1888 -208 1888 -224
WIRE 2176 -208 2176 -224
WIRE 2400 -208 2400 -240
WIRE 2800 -208 2800 -240
WIRE 3520 -208 3520 -640
WIRE 3328 -192 3328 -640
WIRE -160 -144 -160 -176
WIRE 464 -128 464 -144
WIRE 208 -112 208 -336
WIRE 1504 -112 1504 -288
WIRE 1728 -112 1504 -112
WIRE 1888 -112 1888 -128
WIRE 1888 -112 1792 -112
WIRE 2176 -112 2176 -128
WIRE 2176 -112 1888 -112
WIRE 336 -96 336 -224
WIRE 1344 -96 1344 -576
WIRE 1344 -96 1120 -96
WIRE 1632 -96 1344 -96
WIRE 2400 -96 2400 -128
WIRE 2576 -96 2576 -256
WIRE 2576 -96 2400 -96
WIRE 2800 -96 2800 -144
WIRE 2800 -96 2672 -96
WIRE 2928 -96 2800 -96
WIRE 2480 -80 2480 -240
WIRE 2576 -80 2576 -96
WIRE 208 -64 208 -112
WIRE 336 -64 336 -96
WIRE 1120 -64 1120 -96
WIRE 1632 -64 1632 -96
WIRE 1248 -32 1248 -224
WIRE 1504 -32 1504 -112
WIRE -160 -16 -160 -64
WIRE 0 -16 -160 -16
WIRE 48 -16 0 -16
WIRE 80 -16 48 -16
WIRE 496 -16 464 -16
WIRE 608 -16 608 -368
WIRE 608 -16 496 -16
WIRE 1056 -16 1008 -16
WIRE 1744 -16 1696 -16
WIRE -160 16 -160 -16
WIRE 2480 16 2480 -16
WIRE 2576 16 2576 -16
WIRE 2576 16 2480 16
WIRE 2672 16 2672 -96
WIRE 2672 16 2576 16
WIRE 0 48 0 -16
WIRE 48 48 0 48
WIRE 80 48 48 48
WIRE 496 48 464 48
WIRE 1008 48 1008 -16
WIRE 1008 48 496 48
WIRE 1120 48 1120 32
WIRE 1200 48 1120 48
WIRE 1632 48 1632 32
WIRE 1632 48 1552 48
WIRE 1744 48 1744 -16
WIRE 1824 48 1744 48
WIRE 2576 48 2480 48
WIRE 2672 48 2576 48
WIRE 1120 64 1120 48
WIRE 1632 64 1632 48
WIRE 2480 80 2480 48
WIRE 2576 80 2576 48
WIRE 1248 96 1248 64
WIRE 1376 96 1248 96
WIRE 1504 96 1504 64
WIRE 1504 96 1376 96
WIRE 48 112 0 112
WIRE 80 112 48 112
WIRE 496 112 464 112
WIRE 576 112 496 112
WIRE 656 112 576 112
WIRE 912 112 736 112
WIRE 1008 112 1008 48
WIRE 1056 112 1008 112
WIRE 1376 112 1376 96
WIRE 1744 112 1744 48
WIRE 1744 112 1696 112
WIRE 576 128 576 112
WIRE 2480 160 2480 144
WIRE 2480 160 2400 160
WIRE 2672 160 2672 48
WIRE 2800 160 2672 160
WIRE 2928 160 2928 -96
WIRE 2928 160 2800 160
WIRE -160 176 -160 96
WIRE 0 176 0 112
WIRE 0 176 -160 176
WIRE 48 176 0 176
WIRE 80 176 48 176
WIRE 496 176 464 176
WIRE 512 176 496 176
WIRE 2400 192 2400 160
WIRE 2800 192 2800 160
WIRE 912 208 912 112
WIRE 1248 208 1248 96
WIRE 1248 208 912 208
WIRE 512 224 512 176
WIRE 1824 224 1824 48
WIRE 1824 224 512 224
WIRE -32 240 -112 240
WIRE 80 240 48 240
WIRE 496 240 464 240
WIRE 2128 240 2128 -368
WIRE 2128 240 496 240
WIRE -160 304 -160 176
WIRE -112 304 -160 304
WIRE 80 304 -32 304
WIRE 496 304 464 304
WIRE 2400 304 2400 272
WIRE 2576 304 2576 144
WIRE 2576 304 2400 304
WIRE 2800 304 2800 256
WIRE 2800 304 2672 304
WIRE 3328 304 3328 -128
WIRE 3328 304 2800 304
WIRE 3520 304 3520 -128
WIRE 3520 304 3328 304
WIRE 2480 320 2480 160
WIRE 2576 320 2576 304
WIRE -32 368 -160 368
WIRE 80 368 48 368
WIRE 496 368 464 368
WIRE 1200 400 1200 352
WIRE 2480 416 2480 384
WIRE 2576 416 2576 384
WIRE 2576 416 2480 416
WIRE 2672 416 2672 304
WIRE 2672 416 2576 416
WIRE -144 432 -160 432
WIRE 80 432 -80 432
WIRE 496 432 464 432
WIRE 528 432 496 432
WIRE 672 432 592 432
WIRE 816 432 752 432
WIRE 2480 464 2480 416
WIRE -64 496 -160 496
WIRE 48 496 0 496
WIRE 80 496 48 496
WIRE 496 496 464 496
WIRE 816 496 816 432
WIRE 816 496 496 496
WIRE 1200 496 1200 480
WIRE 1200 496 816 496
WIRE 1200 512 1200 496
WIRE 144 560 144 544
WIRE 272 560 272 544
WIRE 400 560 400 544
WIRE 1200 608 1200 592
FLAG 704 -288 0
FLAG 2032 -288 0
FLAG 480 -416 0
FLAG 1120 160 0
FLAG 1632 160 0
FLAG 576 192 0
FLAG 1376 192 0
FLAG 1200 608 0
FLAG 3520 -640 OUT
FLAG 80 -336 0
FLAG 272 560 0
FLAG 400 560 0
FLAG -160 432 0
FLAG -160 496 0
FLAG -160 368 0
FLAG -112 240 0
FLAG -160 -176 0
FLAG 496 -16 A
FLAG 496 48 B
FLAG 496 176 D
FLAG 496 240 C
FLAG 496 432 COMP
FLAG 496 496 FB
FLAG 496 112 CS
FLAG 336 -96 Vcc
FLAG 208 -112 UVLO
FLAG -384 -496 0
FLAG -384 -656 IN
FLAG 48 496 SS
FLAG 464 -128 0
FLAG 48 -16 PDLY
FLAG 48 48 ADLY
FLAG 48 112 SBUS
FLAG 1200 352 OUT
FLAG 2480 464 0
FLAG 48 176 Vref
SYMBOL PowerProducts\\LTC3722-1 272 240 R0
SYMATTR InstName U1
SYMBOL PowerProducts\\LTC4440 864 -368 R0
SYMATTR InstName U2
SYMBOL PowerProducts\\LTC4440 1872 -368 M0
SYMATTR InstName U3
SYMBOL voltage 480 -544 R0
SYMATTR InstName V2
SYMATTR Value 12
SYMBOL nmos 1200 -448 R0
WINDOW 3 57 59 Left 2
WINDOW 123 59 82 Left 2
SYMATTR Value IPB200N15N3
SYMATTR Value2 m=2
SYMATTR InstName M1
SYMBOL nmos 1552 -448 M0
WINDOW 3 57 7 Left 2
WINDOW 123 57 53 Left 2
SYMATTR Value IPB200N15N3
SYMATTR Value2 m=2
SYMATTR InstName M2
SYMBOL nmos 1200 -32 R0
WINDOW 3 57 58 Left 2
WINDOW 123 58 80 Left 2
SYMATTR Value IPB200N15N3
SYMATTR Value2 m=2
SYMATTR InstName M3
SYMBOL nmos 1552 -32 M0
WINDOW 3 56 6 Left 2
WINDOW 123 57 56 Left 2
SYMATTR Value IPB200N15N3
SYMATTR Value2 m=2
SYMATTR InstName M4
SYMBOL npn 1056 -64 R0
WINDOW 3 24 58 Left 2
SYMATTR Value 2SD1782K
SYMATTR InstName Q1
SYMBOL npn 1696 -64 M0
WINDOW 3 19 60 Left 2
SYMATTR Value 2SD1782K
SYMATTR InstName Q3
SYMBOL pnp 1056 160 M180
WINDOW 3 39 55 Left 2
SYMATTR Value 2SB1198K
SYMATTR InstName Q2
SYMBOL pnp 1696 160 R180
WINDOW 3 40 57 Left 2
SYMATTR Value 2SB1198K
SYMATTR InstName Q4
SYMBOL res 752 96 R90
WINDOW 0 0 56 VBottom 2
WINDOW 3 32 56 VTop 2
SYMATTR InstName R1
SYMATTR Value 150
SYMBOL cap 560 128 R0
WINDOW 0 24 11 Left 2
WINDOW 3 25 50 Left 2
SYMATTR InstName C3
SYMATTR Value 100p
SYMBOL res 1360 96 R0
SYMATTR InstName R2
SYMATTR Value 10m
SYMBOL ind2 2160 -112 M180
WINDOW 0 36 80 Left 2
WINDOW 3 36 40 Left 2
SYMATTR InstName Lpri
SYMATTR Value 25”
SYMATTR SpiceLine Rser=1m
SYMBOL ind2 2416 -112 R180
WINDOW 0 36 80 Left 2
WINDOW 3 36 40 Left 2
SYMATTR InstName Lsec2
SYMATTR Value 150”
SYMATTR SpiceLine Rser=1m
SYMBOL res 768 416 R90
WINDOW 0 0 56 VBottom 2
WINDOW 3 32 56 VTop 2
SYMATTR InstName R3
SYMATTR Value 20k
SYMBOL cap 592 416 R90
WINDOW 0 0 32 VBottom 2
WINDOW 3 32 32 VTop 2
SYMATTR InstName C4
SYMATTR Value 0.1”
SYMBOL res 1184 496 R0
SYMATTR InstName R4
SYMATTR Value 1k
SYMBOL res 1184 384 R0
SYMATTR InstName R5
SYMATTR Value 145k
SYMBOL res 3504 -224 R0
SYMATTR InstName R_LOAD
SYMATTR Value 24
SYMBOL res 192 -496 R0
SYMATTR InstName R7
SYMATTR Value 80k
SYMBOL res 192 -352 R90
WINDOW 0 0 56 VBottom 2
WINDOW 3 32 56 VTop 2
SYMATTR InstName R8
SYMATTR Value 10k
SYMBOL cap 0 480 R90
WINDOW 0 0 32 VBottom 2
WINDOW 3 32 32 VTop 2
SYMATTR InstName C7
SYMATTR Value 1n
SYMBOL cap -80 416 R90
WINDOW 0 0 32 VBottom 2
WINDOW 3 32 32 VTop 2
SYMATTR InstName C8
SYMATTR Value 250p
SYMBOL res 64 352 R90
WINDOW 0 0 56 VBottom 2
WINDOW 3 32 56 VTop 2
SYMATTR InstName R9
SYMATTR Value 10k
SYMBOL res -16 288 R90
WINDOW 0 0 56 VBottom 2
WINDOW 3 32 56 VTop 2
SYMATTR InstName R10
SYMATTR Value 60k
SYMBOL res 64 224 R90
WINDOW 0 0 56 VBottom 2
WINDOW 3 32 56 VTop 2
SYMATTR InstName R11
SYMATTR Value 100k
SYMBOL res -176 0 R0
SYMATTR InstName R12
SYMATTR Value 80k
SYMBOL res -176 -160 R0
SYMATTR InstName R13
SYMATTR Value 5k
SYMBOL voltage -384 -608 R0
WINDOW 123 0 0 Left 0
WINDOW 39 0 0 Left 0
SYMATTR InstName V1
SYMATTR Value 60
SYMBOL cap 1120 -352 R0
WINDOW 0 46 26 Left 2
WINDOW 3 -76 28 Left 2
SYMATTR InstName C1
SYMATTR Value 0.22”
SYMBOL cap 1600 -352 R0
WINDOW 3 -72 31 Left 2
WINDOW 0 44 32 Left 2
SYMATTR Value 0.22”
SYMATTR InstName C2
SYMBOL res 320 -368 R0
SYMATTR InstName R15
SYMATTR Value 150
SYMBOL cap 448 -208 R0
SYMATTR InstName C6
SYMATTR Value 1”
SYMBOL diode 1120 -544 R0
SYMATTR InstName D1
SYMBOL diode 1600 -544 R0
SYMATTR InstName D2
SYMBOL diode 2496 -256 R180
WINDOW 0 24 64 Left 2
WINDOW 3 24 0 Left 2
SYMATTR InstName D4
SYMBOL diode 2496 -16 R180
WINDOW 0 24 64 Left 2
WINDOW 3 24 0 Left 2
SYMATTR InstName D6
SYMBOL diode 2592 -256 R180
WINDOW 0 24 64 Left 2
WINDOW 3 24 0 Left 2
SYMATTR InstName D7
SYMBOL diode 2592 -16 R180
WINDOW 0 24 64 Left 2
WINDOW 3 24 0 Left 2
SYMATTR InstName D8
SYMBOL ind2 2416 288 R180
WINDOW 0 36 80 Left 2
WINDOW 3 36 40 Left 2
SYMATTR InstName Lsec3
SYMATTR Value 150”
SYMATTR SpiceLine Rser=1m
SYMBOL diode 2496 144 R180
WINDOW 0 24 64 Left 2
WINDOW 3 24 0 Left 2
SYMATTR InstName D3
SYMBOL diode 2496 384 R180
WINDOW 0 24 64 Left 2
WINDOW 3 24 0 Left 2
SYMATTR InstName D5
SYMBOL diode 2592 144 R180
WINDOW 0 24 64 Left 2
WINDOW 3 24 0 Left 2
SYMATTR InstName D9
SYMBOL diode 2592 384 R180
WINDOW 0 24 64 Left 2
WINDOW 3 24 0 Left 2
SYMATTR InstName D10
SYMBOL ind2 2416 -512 R180
WINDOW 0 36 80 Left 2
WINDOW 3 36 40 Left 2
SYMATTR InstName Lsec1
SYMATTR Value 150”
SYMATTR SpiceLine Rser=1m
SYMBOL diode 2496 -656 R180
WINDOW 0 24 64 Left 2
WINDOW 3 24 0 Left 2
SYMATTR InstName D11
SYMBOL diode 2496 -416 R180
WINDOW 0 24 64 Left 2
WINDOW 3 24 0 Left 2
SYMATTR InstName D12
SYMBOL diode 2592 -656 R180
WINDOW 0 24 64 Left 2
WINDOW 3 24 0 Left 2
SYMATTR InstName D13
SYMBOL diode 2592 -416 R180
WINDOW 0 24 64 Left 2
WINDOW 3 24 0 Left 2
SYMATTR InstName D14
SYMBOL cap 3312 -192 R0
SYMATTR InstName C5
SYMATTR Value 25”
SYMBOL diode 2816 -544 R180
WINDOW 0 24 64 Left 2
WINDOW 3 24 0 Left 2
SYMATTR InstName D15
SYMBOL diode 2816 -144 R180
WINDOW 0 24 64 Left 2
WINDOW 3 24 0 Left 2
SYMATTR InstName D16
SYMBOL diode 2816 256 R180
WINDOW 0 24 64 Left 2
WINDOW 3 24 0 Left 2
SYMATTR InstName D17
SYMBOL ind 3040 -624 R270
WINDOW 0 32 56 VTop 2
WINDOW 3 5 56 VBottom 2
SYMATTR InstName L1
SYMATTR Value 50”
SYMATTR SpiceLine Rser=1m
SYMBOL ind 1872 -224 R0
SYMATTR InstName L2
SYMATTR Value 50”
SYMBOL cap 1792 -128 R90
WINDOW 0 0 32 VBottom 2
WINDOW 3 32 32 VTop 2
SYMATTR InstName C10
SYMATTR Value 1”
TEXT 2096 -864 Left 2 !K1 Lpri Lsec1 Lsec2 Lsec3 0.95
TEXT 40 -768 Left 2 !.tran 0 20m 0 1u startup uic
